002


 51 54  0  0  0  0  0  0  0  0999 V2000
  -24.3917   16.9485  -18.4270 F   0  0  0  1  0  0  0  0  0  0  0  0
  -23.0329   18.8060  -19.9141 F   0  0  0  1  0  0  0  0  0  0  0  0
  -14.9247   18.7355  -15.5951 O   0  0  0  1  0  0  0  0  0  0  0  0
  -18.1040   15.7747  -18.7196 N   0  3  0  1  0  0  0  0  0  0  0  0
  -15.3083   16.9271  -16.8827 N   0  0  0  1  0  0  0  0  0  0  0  0
  -12.3093   14.0991  -11.9059 C   0  0  0  1  0  0  0  0  0  0  0  0
  -14.3089   15.8594  -11.0898 C   0  0  0  1  0  0  0  0  0  0  0  0
  -16.6845   15.5240  -19.1553 C   0  0  0  1  0  0  0  0  0  0  0  0
  -18.2021   16.7221  -17.5457 C   0  0  0  1  0  0  0  0  0  0  0  0
  -19.0437   16.0589  -19.8537 C   0  0  0  1  0  0  0  0  0  0  0  0
  -15.8293   16.7917  -19.2601 C   0  0  0  1  0  0  0  0  0  0  0  0
  -17.3522   17.9805  -17.6931 C   0  0  0  1  0  0  0  0  0  0  0  0
  -15.8889   17.6347  -17.9814 C   0  0  0  1  0  0  0  0  0  0  0  0
  -22.4927   15.5851  -18.3368 C   0  0  0  1  0  0  0  0  0  0  0  0
  -12.5318   14.9117  -14.2364 C   0  0  0  1  0  0  0  0  0  0  0  0
  -21.1629   15.3654  -18.7051 C   0  0  0  1  0  0  0  0  0  0  0  0
  -13.1483   15.7142  -15.1459 C   0  0  0  1  0  0  0  0  0  0  0  0
  -21.0985   17.4933  -19.8607 C   0  0  0  1  0  0  0  0  0  0  0  0
  -14.5315   16.6720  -13.4203 C   0  0  0  1  0  0  0  0  0  0  0  0
  -23.1180   16.7516  -18.7555 C   0  0  0  1  0  0  0  0  0  0  0  0
  -22.4281   17.6930  -19.5087 C   0  0  0  1  0  0  0  0  0  0  0  0
  -14.7977   17.5293  -15.7266 C   0  0  0  1  0  0  0  0  0  0  0  0
  -12.9029   14.9363  -12.8671 C   0  0  0  1  0  0  0  0  0  0  0  0
  -13.9379   15.8349  -12.4591 C   0  0  0  1  0  0  0  0  0  0  0  0
  -20.4591   16.3123  -19.4631 C   0  0  0  1  0  0  0  0  0  0  0  0
  -14.1579   16.6306  -14.7380 C   0  0  0  1  0  0  0  0  0  0  0  0
  -13.6924   15.0568  -10.1801 C   0  0  0  1  0  0  0  0  0  0  0  0
  -12.6829   14.1406  -10.5882 C   0  0  0  1  0  0  0  0  0  0  0  0
  -18.4266   14.8517  -18.3367 H   0  0  0  1  0  0  0  0  0  0  0  0
  -15.2647   15.9500  -16.9435 H   0  0  0  1  0  0  0  0  0  0  0  0
  -11.5685   13.4321  -12.2024 H   0  0  0  1  0  0  0  0  0  0  0  0
  -15.0646   16.5014  -10.7762 H   0  0  0  1  0  0  0  0  0  0  0  0
  -16.7061   15.0529  -20.1158 H   0  0  0  1  0  0  0  0  0  0  0  0
  -16.2262   14.8673  -18.4456 H   0  0  0  1  0  0  0  0  0  0  0  0
  -17.8842   16.2023  -16.6661 H   0  0  0  1  0  0  0  0  0  0  0  0
  -19.2247   17.0175  -17.4360 H   0  0  0  1  0  0  0  0  0  0  0  0
  -19.0292   15.2164  -20.5132 H   0  0  0  1  0  0  0  0  0  0  0  0
  -18.6843   16.9238  -20.3711 H   0  0  0  1  0  0  0  0  0  0  0  0
  -16.1855   17.3813  -20.0789 H   0  0  0  1  0  0  0  0  0  0  0  0
  -14.8132   16.5084  -19.4394 H   0  0  0  1  0  0  0  0  0  0  0  0
  -17.4043   18.5442  -16.7851 H   0  0  0  1  0  0  0  0  0  0  0  0
  -17.7368   18.5677  -18.5007 H   0  0  0  1  0  0  0  0  0  0  0  0
  -15.3526   18.5450  -18.1508 H   0  0  0  1  0  0  0  0  0  0  0  0
  -23.0045   14.8876  -17.7596 H   0  0  0  1  0  0  0  0  0  0  0  0
  -11.7761   14.2697  -14.5500 H   0  0  0  1  0  0  0  0  0  0  0  0
  -20.6884   14.4873  -18.4129 H   0  0  0  1  0  0  0  0  0  0  0  0
  -12.8792   15.6575  -16.1489 H   0  0  0  1  0  0  0  0  0  0  0  0
  -20.5855   18.2108  -20.4117 H   0  0  0  1  0  0  0  0  0  0  0  0
  -15.2723   17.3391  -13.1238 H   0  0  0  1  0  0  0  0  0  0  0  0
  -13.9615   15.1136   -9.1771 H   0  0  0  1  0  0  0  0  0  0  0  0
  -12.2337   13.5096   -9.8942 H   0  0  0  1  0  0  0  0  0  0  0  0
  1 20  1  0  0  0  0
  2 21  1  0  0  0  0
  3 22  2  0  0  0  0
  4  8  1  0  0  0  0
  4  9  1  0  0  0  0
  4 10  1  0  0  0  0
  4 29  1  0  0  0  0
  5 13  1  0  0  0  0
  5 22  1  0  0  0  0
  5 30  1  0  0  0  0
  6 23  1  0  0  0  0
  6 28  2  0  0  0  0
  6 31  1  0  0  0  0
  7 24  1  0  0  0  0
  7 27  2  0  0  0  0
  7 32  1  0  0  0  0
  8 11  1  0  0  0  0
  8 33  1  0  0  0  0
  8 34  1  0  0  0  0
  9 12  1  0  0  0  0
  9 35  1  0  0  0  0
  9 36  1  0  0  0  0
 10 25  1  0  0  0  0
 10 37  1  0  0  0  0
 10 38  1  0  0  0  0
 11 13  1  0  0  0  0
 11 39  1  0  0  0  0
 11 40  1  0  0  0  0
 12 13  1  0  0  0  0
 12 41  1  0  0  0  0
 12 42  1  0  0  0  0
 13 43  1  0  0  0  0
 14 16  2  0  0  0  0
 14 20  1  0  0  0  0
 14 44  1  0  0  0  0
 15 17  2  0  0  0  0
 15 23  1  0  0  0  0
 15 45  1  0  0  0  0
 16 25  1  0  0  0  0
 16 46  1  0  0  0  0
 17 26  1  0  0  0  0
 17 47  1  0  0  0  0
 18 21  1  0  0  0  0
 18 25  2  0  0  0  0
 18 48  1  0  0  0  0
 19 24  1  0  0  0  0
 19 26  2  0  0  0  0
 19 49  1  0  0  0  0
 20 21  2  0  0  0  0
 22 26  1  0  0  0  0
 23 24  2  0  0  0  0
 27 28  1  0  0  0  0
 27 50  1  0  0  0  0
 28 51  1  0  0  0  0
M  END
> <BCLConfClusterSize>
1

> <ConfClashScore>
0 

> <ConfOneFourInteractionScore>
-0.97977 

> <ConfScore>
5.27484 

> <ConfScorePBest>
nan 

> <ConfTolerance>
0.125 

> <SampleByParts>
5 6 14 16 18 22 23 25 26 27 

$$$$
