


 50 53  0  0  0  0  0  0  0  0999 V2000
   17.4514   14.6956    3.8926 N   0  0  0  1  0  0  0  0  0  0  0  0
   18.2419   15.7029    4.2707 C   0  0  0  1  0  0  0  0  0  0  0  0
   17.8880   16.7966    4.9453 N   0  0  0  1  0  0  0  0  0  0  0  0
   16.5881   16.8771    5.2753 C   0  0  0  1  0  0  0  0  0  0  0  0
   15.6739   15.8973    4.9366 C   0  0  0  1  0  0  0  0  0  0  0  0
   16.1608   14.8108    4.2384 C   0  0  0  1  0  0  0  0  0  0  0  0
   15.2548   13.8261    3.9011 O   0  0  0  1  0  0  0  0  0  0  0  0
   15.0415   13.3764    2.6263 C   0  0  0  1  0  0  0  0  0  0  0  0
   14.4974   13.6570    0.3091 N   0  0  0  1  0  0  0  0  0  0  0  0
   14.6976   14.1573    1.5367 C   0  0  0  1  0  0  0  0  0  0  0  0
   15.1915   12.0152    2.4469 C   0  0  0  1  0  0  0  0  0  0  0  0
   14.9925   11.4858    1.1852 C   0  0  0  1  0  0  0  0  0  0  0  0
   14.6475   12.3381    0.1536 C   0  0  0  1  0  0  0  0  0  0  0  0
   19.5418   15.4832    3.7994 N   0  0  0  1  0  0  0  0  0  0  0  0
   20.5879   16.3341    4.1755 C   0  0  0  1  0  0  0  0  0  0  0  0
   21.2547   16.1231    5.3956 C   0  0  0  1  0  0  0  0  0  0  0  0
   22.2391   17.0602    5.7405 C   0  0  0  1  0  0  0  0  0  0  0  0
   22.4884   18.1636    4.9006 C   0  0  0  1  0  0  0  0  0  0  0  0
   21.7389   18.3882    3.7573 C   0  0  0  1  0  0  0  0  0  0  0  0
   20.7845   17.4725    3.3671 C   0  0  0  1  0  0  0  0  0  0  0  0
   23.0584   17.0116    6.8747 N   0  0  0  1  0  0  0  0  0  0  0  0
   23.0273   16.2522    8.0504 C   0  0  0  1  0  0  0  0  0  0  0  0
   24.1315   16.2613    9.0055 C   0  0  0  1  0  0  0  0  0  0  0  0
   24.8584   17.3996    9.3175 C   0  0  0  1  0  0  0  0  0  0  0  0
   25.8683   17.3428   10.2508 C   0  0  0  1  0  0  0  0  0  0  0  0
   26.1218   16.1714   10.9614 C   0  0  0  1  0  0  0  0  0  0  0  0
   25.4066   15.0224   10.6569 C   0  0  0  1  0  0  0  0  0  0  0  0
   24.4539   15.0612    9.6353 C   0  0  0  1  0  0  0  0  0  0  0  0
   22.1001   15.5463    8.4117 O   0  0  0  1  0  0  0  0  0  0  0  0
   14.4447   16.4700    0.5996 C   0  0  0  1  0  0  0  0  0  0  0  0
   14.6157   15.6131    1.6055 C   0  0  0  1  0  0  0  0  0  0  0  0
   16.2572   17.7082    5.8057 H   0  0  0  1  0  0  0  0  0  0  0  0
   14.6695   15.9749    5.1950 H   0  0  0  1  0  0  0  0  0  0  0  0
   15.4490   11.4004    3.2452 H   0  0  0  1  0  0  0  0  0  0  0  0
   15.1004   10.4654    1.0157 H   0  0  0  1  0  0  0  0  0  0  0  0
   14.4970   11.9325   -0.7921 H   0  0  0  1  0  0  0  0  0  0  0  0
   19.7208   14.7277    3.2015 H   0  0  0  1  0  0  0  0  0  0  0  0
   21.0296   15.3146    6.0098 H   0  0  0  1  0  0  0  0  0  0  0  0
   23.2529   18.8251    5.1447 H   0  0  0  1  0  0  0  0  0  0  0  0
   21.8961   19.2476    3.1931 H   0  0  0  1  0  0  0  0  0  0  0  0
   20.2260   17.6174    2.5019 H   0  0  0  1  0  0  0  0  0  0  0  0
   23.8098   17.6396    6.8380 H   0  0  0  1  0  0  0  0  0  0  0  0
   24.6399   18.2998    8.8447 H   0  0  0  1  0  0  0  0  0  0  0  0
   26.4504   18.1861   10.4282 H   0  0  0  1  0  0  0  0  0  0  0  0
   26.8405   16.1585   11.7130 H   0  0  0  1  0  0  0  0  0  0  0  0
   25.5777   14.1418   11.1830 H   0  0  0  1  0  0  0  0  0  0  0  0
   23.9797   14.1835    9.3416 H   0  0  0  1  0  0  0  0  0  0  0  0
   14.4256   16.1239   -0.3809 H   0  0  0  1  0  0  0  0  0  0  0  0
   14.3304   17.4851    0.7950 H   0  0  0  1  0  0  0  0  0  0  0  0
   14.7010   16.0317    2.5537 H   0  0  0  1  0  0  0  0  0  0  0  0
  1  2  1  0  0  0  0
  1  6  2  0  0  0  0
  2  3  2  0  0  0  0
  2 14  1  0  0  0  0
  3  4  1  0  0  0  0
  4  5  2  0  0  0  0
  4 32  1  0  0  0  0
  5  6  1  0  0  0  0
  5 33  1  0  0  0  0
  6  7  1  0  0  0  0
  7  8  1  0  0  0  0
  8 10  1  0  0  0  0
  8 11  2  0  0  0  0
  9 10  2  0  0  0  0
  9 13  1  0  0  0  0
 10 31  1  0  0  0  0
 11 12  1  0  0  0  0
 11 34  1  0  0  0  0
 12 13  2  0  0  0  0
 12 35  1  0  0  0  0
 13 36  1  0  0  0  0
 14 15  1  0  0  0  0
 14 37  1  0  0  0  0
 15 16  1  0  0  0  0
 15 20  2  0  0  0  0
 16 17  2  0  0  0  0
 16 38  1  0  0  0  0
 17 18  1  0  0  0  0
 17 21  1  0  0  0  0
 18 19  2  0  0  0  0
 18 39  1  0  0  0  0
 19 20  1  0  0  0  0
 19 40  1  0  0  0  0
 20 41  1  0  0  0  0
 21 22  1  0  0  0  0
 21 42  1  0  0  0  0
 22 23  1  0  0  0  0
 22 29  2  0  0  0  0
 23 24  1  0  0  0  0
 23 28  2  0  0  0  0
 24 25  2  0  0  0  0
 24 43  1  0  0  0  0
 25 26  1  0  0  0  0
 25 44  1  0  0  0  0
 26 27  2  0  0  0  0
 26 45  1  0  0  0  0
 27 28  1  0  0  0  0
 27 46  1  0  0  0  0
 28 47  1  0  0  0  0
 30 31  2  0  0  0  0
 30 48  1  0  0  0  0
 30 49  1  0  0  0  0
 31 50  1  0  0  0  0
M  END
> <BCLConfClusterSize>
1

> <ConfClashScore>
0 

> <ConfOneFourInteractionScore>
-0.992983 

> <ConfScore>
-0.0617543 

> <ConfScorePBest>
0.0152694 

> <ConfTolerance>
0 

> <FilterEnsembleComparerType>
less_equal

> <FilterEnsembleComparerValue>
0.00334708

> <FilterEnsembleConformerComparer>
SymmetryRealSpaceRMSD

> <Reaction>
Mrv2113123120212001,IMX,

$$$$



 61 64  0  0  0  0  0  0  0  0999 V2000
   17.4441   14.6925    3.8959 N   0  0  0  1  0  0  0  0  0  0  0  0
   18.2383   15.6963    4.2676 C   0  0  0  1  0  0  0  0  0  0  0  0
   17.8904   16.7945    4.9423 N   0  0  0  1  0  0  0  0  0  0  0  0
   16.5942   16.8840    5.2748 C   0  0  0  1  0  0  0  0  0  0  0  0
   15.6752   15.9079    4.9469 C   0  0  0  1  0  0  0  0  0  0  0  0
   16.1528   14.8171    4.2452 C   0  0  0  1  0  0  0  0  0  0  0  0
   15.2737   13.8152    3.8875 O   0  0  0  1  0  0  0  0  0  0  0  0
   15.7500   12.5467    3.6957 C   0  0  0  1  0  0  0  0  0  0  0  0
   17.0453   10.8425    2.6258 N   0  0  0  1  0  0  0  0  0  0  0  0
   16.6413   12.1119    2.7333 C   0  0  0  1  0  0  0  0  0  0  0  0
   15.2476   11.6292    4.5998 C   0  0  0  1  0  0  0  0  0  0  0  0
   15.6533   10.3125    4.5035 C   0  0  0  1  0  0  0  0  0  0  0  0
   16.5469    9.9628    3.5062 C   0  0  0  1  0  0  0  0  0  0  0  0
   19.5405   15.4833    3.8000 N   0  0  0  1  0  0  0  0  0  0  0  0
   20.5869   16.3341    4.1758 C   0  0  0  1  0  0  0  0  0  0  0  0
   21.2538   16.1231    5.3959 C   0  0  0  1  0  0  0  0  0  0  0  0
   22.2383   17.0601    5.7406 C   0  0  0  1  0  0  0  0  0  0  0  0
   22.4877   18.1634    4.9005 C   0  0  0  1  0  0  0  0  0  0  0  0
   21.7381   18.3880    3.7573 C   0  0  0  1  0  0  0  0  0  0  0  0
   20.7835   17.4724    3.3673 C   0  0  0  1  0  0  0  0  0  0  0  0
   23.0578   17.0115    6.8746 N   0  0  0  1  0  0  0  0  0  0  0  0
   23.0267   16.2522    8.0504 C   0  0  0  1  0  0  0  0  0  0  0  0
   24.1311   16.2613    9.0054 C   0  0  0  1  0  0  0  0  0  0  0  0
   24.8582   17.3995    9.3172 C   0  0  0  1  0  0  0  0  0  0  0  0
   25.8682   17.3426   10.2503 C   0  0  0  1  0  0  0  0  0  0  0  0
   26.1217   16.1712   10.9610 C   0  0  0  1  0  0  0  0  0  0  0  0
   25.4063   15.0223   10.6566 C   0  0  0  1  0  0  0  0  0  0  0  0
   24.4534   15.0612    9.6352 C   0  0  0  1  0  0  0  0  0  0  0  0
   22.0995   15.5465    8.4119 O   0  0  0  1  0  0  0  0  0  0  0  0
   13.9913   12.3680    8.4723 C   0  0  0  1  0  0  0  0  0  0  0  0
   13.9910   11.1344    6.4935 O   0  0  0  1  0  0  0  0  0  0  0  0
   11.8952   12.2575    7.1068 C   0  0  0  1  0  0  0  0  0  0  0  0
   12.7083   10.2360    8.3678 C   0  0  0  1  0  0  0  0  0  0  0  0
   14.3716   12.1269    5.6905 C   0  0  0  1  0  0  0  0  0  0  0  0
   13.0967   11.4816    7.6211 C   0  0  0  1  0  0  0  0  0  0  0  0
   13.9901   13.2606    5.7882 O   0  0  0  1  0  0  0  0  0  0  0  0
   16.2691   17.7209    5.7996 H   0  0  0  1  0  0  0  0  0  0  0  0
   14.6735   15.9890    5.2145 H   0  0  0  1  0  0  0  0  0  0  0  0
   17.0169   12.8081    2.0582 H   0  0  0  1  0  0  0  0  0  0  0  0
   15.2941    9.5974    5.1677 H   0  0  0  1  0  0  0  0  0  0  0  0
   16.8464    8.9693    3.4364 H   0  0  0  1  0  0  0  0  0  0  0  0
   19.7221   14.7287    3.2016 H   0  0  0  1  0  0  0  0  0  0  0  0
   21.0287   15.3147    6.0101 H   0  0  0  1  0  0  0  0  0  0  0  0
   23.2523   18.8248    5.1444 H   0  0  0  1  0  0  0  0  0  0  0  0
   21.8954   19.2473    3.1930 H   0  0  0  1  0  0  0  0  0  0  0  0
   20.2249   17.6173    2.5021 H   0  0  0  1  0  0  0  0  0  0  0  0
   23.8093   17.6394    6.8378 H   0  0  0  1  0  0  0  0  0  0  0  0
   24.6398   18.2996    8.8443 H   0  0  0  1  0  0  0  0  0  0  0  0
   26.4505   18.1859   10.4275 H   0  0  0  1  0  0  0  0  0  0  0  0
   26.8405   16.1584   11.7125 H   0  0  0  1  0  0  0  0  0  0  0  0
   25.5773   14.1417   11.1829 H   0  0  0  1  0  0  0  0  0  0  0  0
   23.9790   14.1835    9.3417 H   0  0  0  1  0  0  0  0  0  0  0  0
   14.7700   11.7769    8.9072 H   0  0  0  1  0  0  0  0  0  0  0  0
   13.4104   12.8195    9.2492 H   0  0  0  1  0  0  0  0  0  0  0  0
   14.4233   13.1315    7.8597 H   0  0  0  1  0  0  0  0  0  0  0  0
   11.2034   12.4167    7.9074 H   0  0  0  1  0  0  0  0  0  0  0  0
   11.4174   11.6999    6.3285 H   0  0  0  1  0  0  0  0  0  0  0  0
   12.2189   13.2022    6.7223 H   0  0  0  1  0  0  0  0  0  0  0  0
   13.5726    9.8192    8.8412 H   0  0  0  1  0  0  0  0  0  0  0  0
   12.2984    9.5233    7.6831 H   0  0  0  1  0  0  0  0  0  0  0  0
   11.9774   10.4790    9.1105 H   0  0  0  1  0  0  0  0  0  0  0  0
  1  2  1  0  0  0  0
  1  6  2  0  0  0  0
  2  3  2  0  0  0  0
  2 14  1  0  0  0  0
  3  4  1  0  0  0  0
  4  5  2  0  0  0  0
  4 37  1  0  0  0  0
  5  6  1  0  0  0  0
  5 38  1  0  0  0  0
  6  7  1  0  0  0  0
  7  8  1  0  0  0  0
  8 10  1  0  0  0  0
  8 11  2  0  0  0  0
  9 10  2  0  0  0  0
  9 13  1  0  0  0  0
 10 39  1  0  0  0  0
 11 12  1  0  0  0  0
 11 34  1  0  0  0  0
 12 13  2  0  0  0  0
 12 40  1  0  0  0  0
 13 41  1  0  0  0  0
 14 15  1  0  0  0  0
 14 42  1  0  0  0  0
 15 16  1  0  0  0  0
 15 20  2  0  0  0  0
 16 17  2  0  0  0  0
 16 43  1  0  0  0  0
 17 18  1  0  0  0  0
 17 21  1  0  0  0  0
 18 19  2  0  0  0  0
 18 44  1  0  0  0  0
 19 20  1  0  0  0  0
 19 45  1  0  0  0  0
 20 46  1  0  0  0  0
 21 22  1  0  0  0  0
 21 47  1  0  0  0  0
 22 23  1  0  0  0  0
 22 29  2  0  0  0  0
 23 24  1  0  0  0  0
 23 28  2  0  0  0  0
 24 25  2  0  0  0  0
 24 48  1  0  0  0  0
 25 26  1  0  0  0  0
 25 49  1  0  0  0  0
 26 27  2  0  0  0  0
 26 50  1  0  0  0  0
 27 28  1  0  0  0  0
 27 51  1  0  0  0  0
 28 52  1  0  0  0  0
 30 35  1  0  0  0  0
 30 53  1  0  0  0  0
 30 54  1  0  0  0  0
 30 55  1  0  0  0  0
 31 34  1  0  0  0  0
 31 35  1  0  0  0  0
 32 35  1  0  0  0  0
 32 56  1  0  0  0  0
 32 57  1  0  0  0  0
 32 58  1  0  0  0  0
 33 35  1  0  0  0  0
 33 59  1  0  0  0  0
 33 60  1  0  0  0  0
 33 61  1  0  0  0  0
 34 36  2  0  0  0  0
M  END
> <BCLConfClusterSize>
1

> <ConfClashScore>
0 

> <ConfOneFourInteractionScore>
-0.994156 

> <ConfScore>
-0.290387 

> <ConfScorePBest>
0.0321414 

> <ConfTolerance>
0 

> <FilterEnsembleComparerType>
less_equal

> <FilterEnsembleComparerValue>
0

> <FilterEnsembleConformerComparer>
SymmetryRealSpaceRMSD

> <Reaction>
Mrv2113123120212001,IMX,

$$$$



 53 56  0  0  0  0  0  0  0  0999 V2000
   17.4514   14.6956    3.8926 N   0  0  0  1  0  0  0  0  0  0  0  0
   18.2419   15.7029    4.2707 C   0  0  0  1  0  0  0  0  0  0  0  0
   17.8880   16.7966    4.9453 N   0  0  0  1  0  0  0  0  0  0  0  0
   16.5881   16.8771    5.2753 C   0  0  0  1  0  0  0  0  0  0  0  0
   15.6739   15.8973    4.9366 C   0  0  0  1  0  0  0  0  0  0  0  0
   16.1608   14.8108    4.2384 C   0  0  0  1  0  0  0  0  0  0  0  0
   15.2548   13.8261    3.9011 O   0  0  0  1  0  0  0  0  0  0  0  0
   13.9924   14.1932    3.4428 C   0  0  0  1  0  0  0  0  0  0  0  0
   11.6463   14.3721    3.8797 N   0  0  0  1  0  0  0  0  0  0  0  0
   12.8967   14.1255    4.2822 C   0  0  0  1  0  0  0  0  0  0  0  0
   13.7950   14.5358    2.1179 C   0  0  0  1  0  0  0  0  0  0  0  0
   12.5093   14.7934    1.6838 C   0  0  0  1  0  0  0  0  0  0  0  0
   11.4690   14.6989    2.5917 C   0  0  0  1  0  0  0  0  0  0  0  0
   19.5418   15.4832    3.7994 N   0  0  0  1  0  0  0  0  0  0  0  0
   20.5879   16.3341    4.1755 C   0  0  0  1  0  0  0  0  0  0  0  0
   21.2547   16.1231    5.3956 C   0  0  0  1  0  0  0  0  0  0  0  0
   22.2391   17.0602    5.7405 C   0  0  0  1  0  0  0  0  0  0  0  0
   22.4884   18.1636    4.9006 C   0  0  0  1  0  0  0  0  0  0  0  0
   21.7389   18.3882    3.7573 C   0  0  0  1  0  0  0  0  0  0  0  0
   20.7845   17.4725    3.3671 C   0  0  0  1  0  0  0  0  0  0  0  0
   23.0584   17.0116    6.8747 N   0  0  0  1  0  0  0  0  0  0  0  0
   23.0273   16.2522    8.0504 C   0  0  0  1  0  0  0  0  0  0  0  0
   24.1315   16.2613    9.0055 C   0  0  0  1  0  0  0  0  0  0  0  0
   24.8584   17.3996    9.3175 C   0  0  0  1  0  0  0  0  0  0  0  0
   25.8683   17.3428   10.2508 C   0  0  0  1  0  0  0  0  0  0  0  0
   26.1218   16.1714   10.9614 C   0  0  0  1  0  0  0  0  0  0  0  0
   25.4066   15.0224   10.6569 C   0  0  0  1  0  0  0  0  0  0  0  0
   24.4539   15.0612    9.6353 C   0  0  0  1  0  0  0  0  0  0  0  0
   22.1001   15.5463    8.4117 O   0  0  0  1  0  0  0  0  0  0  0  0
   11.0799   15.5342   -0.2045 C   0  0  0  1  0  0  0  0  0  0  0  0
   11.1451   16.0847   -1.6159 C   0  0  0  1  0  0  0  0  0  0  0  0
   12.2765   15.2358    0.3691 N   0  0  0  1  0  0  0  0  0  0  0  0
   10.0035   15.3746    0.3694 O   0  0  0  1  0  0  0  0  0  0  0  0
   16.2572   17.7082    5.8057 H   0  0  0  1  0  0  0  0  0  0  0  0
   14.6695   15.9749    5.1950 H   0  0  0  1  0  0  0  0  0  0  0  0
   13.0531   13.8696    5.2780 H   0  0  0  1  0  0  0  0  0  0  0  0
   14.5988   14.5984    1.4611 H   0  0  0  1  0  0  0  0  0  0  0  0
   10.5027   14.8907    2.2585 H   0  0  0  1  0  0  0  0  0  0  0  0
   19.7208   14.7277    3.2015 H   0  0  0  1  0  0  0  0  0  0  0  0
   21.0296   15.3146    6.0098 H   0  0  0  1  0  0  0  0  0  0  0  0
   23.2529   18.8251    5.1447 H   0  0  0  1  0  0  0  0  0  0  0  0
   21.8961   19.2476    3.1931 H   0  0  0  1  0  0  0  0  0  0  0  0
   20.2260   17.6174    2.5019 H   0  0  0  1  0  0  0  0  0  0  0  0
   23.8098   17.6396    6.8380 H   0  0  0  1  0  0  0  0  0  0  0  0
   24.6399   18.2998    8.8447 H   0  0  0  1  0  0  0  0  0  0  0  0
   26.4504   18.1861   10.4282 H   0  0  0  1  0  0  0  0  0  0  0  0
   26.8405   16.1585   11.7130 H   0  0  0  1  0  0  0  0  0  0  0  0
   25.5777   14.1418   11.1830 H   0  0  0  1  0  0  0  0  0  0  0  0
   23.9797   14.1835    9.3416 H   0  0  0  1  0  0  0  0  0  0  0  0
   11.7132   16.9913   -1.6198 H   0  0  0  1  0  0  0  0  0  0  0  0
   10.1541   16.2835   -1.9670 H   0  0  0  1  0  0  0  0  0  0  0  0
   11.6139   15.3675   -2.2568 H   0  0  0  1  0  0  0  0  0  0  0  0
   13.0679   15.3411   -0.1992 H   0  0  0  1  0  0  0  0  0  0  0  0
  1  2  1  0  0  0  0
  1  6  2  0  0  0  0
  2  3  2  0  0  0  0
  2 14  1  0  0  0  0
  3  4  1  0  0  0  0
  4  5  2  0  0  0  0
  4 34  1  0  0  0  0
  5  6  1  0  0  0  0
  5 35  1  0  0  0  0
  6  7  1  0  0  0  0
  7  8  1  0  0  0  0
  8 10  1  0  0  0  0
  8 11  2  0  0  0  0
  9 10  2  0  0  0  0
  9 13  1  0  0  0  0
 10 36  1  0  0  0  0
 11 12  1  0  0  0  0
 11 37  1  0  0  0  0
 12 13  2  0  0  0  0
 12 32  1  0  0  0  0
 13 38  1  0  0  0  0
 14 15  1  0  0  0  0
 14 39  1  0  0  0  0
 15 16  1  0  0  0  0
 15 20  2  0  0  0  0
 16 17  2  0  0  0  0
 16 40  1  0  0  0  0
 17 18  1  0  0  0  0
 17 21  1  0  0  0  0
 18 19  2  0  0  0  0
 18 41  1  0  0  0  0
 19 20  1  0  0  0  0
 19 42  1  0  0  0  0
 20 43  1  0  0  0  0
 21 22  1  0  0  0  0
 21 44  1  0  0  0  0
 22 23  1  0  0  0  0
 22 29  2  0  0  0  0
 23 24  1  0  0  0  0
 23 28  2  0  0  0  0
 24 25  2  0  0  0  0
 24 45  1  0  0  0  0
 25 26  1  0  0  0  0
 25 46  1  0  0  0  0
 26 27  2  0  0  0  0
 26 47  1  0  0  0  0
 27 28  1  0  0  0  0
 27 48  1  0  0  0  0
 28 49  1  0  0  0  0
 30 31  1  0  0  0  0
 30 32  1  0  0  0  0
 30 33  2  0  0  0  0
 31 50  1  0  0  0  0
 31 51  1  0  0  0  0
 31 52  1  0  0  0  0
 32 53  1  0  0  0  0
M  END
> <BCLConfClusterSize>
1

> <ConfClashScore>
0 

> <ConfOneFourInteractionScore>
-0.984675 

> <ConfScore>
-0.238448 

> <ConfScorePBest>
0.0804193 

> <ConfTolerance>
0 

> <FilterEnsembleComparerType>
less_equal

> <FilterEnsembleComparerValue>
0

> <FilterEnsembleConformerComparer>
SymmetryRealSpaceRMSD

> <Reaction>
Mrv2113123120212001,IMX,

$$$$



 62 65  0  0  0  0  0  0  0  0999 V2000
   17.4514   14.6956    3.8926 N   0  0  0  1  0  0  0  0  0  0  0  0
   18.2419   15.7029    4.2707 C   0  0  0  1  0  0  0  0  0  0  0  0
   17.8880   16.7966    4.9453 N   0  0  0  1  0  0  0  0  0  0  0  0
   16.5881   16.8771    5.2753 C   0  0  0  1  0  0  0  0  0  0  0  0
   15.6739   15.8973    4.9366 C   0  0  0  1  0  0  0  0  0  0  0  0
   16.1608   14.8108    4.2384 C   0  0  0  1  0  0  0  0  0  0  0  0
   15.2548   13.8261    3.9011 O   0  0  0  1  0  0  0  0  0  0  0  0
   15.6455   12.8197    3.0601 C   0  0  0  1  0  0  0  0  0  0  0  0
   16.6988   11.9542    1.0933 N   0  0  0  1  0  0  0  0  0  0  0  0
   16.3453   12.9761    1.8789 C   0  0  0  1  0  0  0  0  0  0  0  0
   15.2913   11.5442    3.4594 C   0  0  0  1  0  0  0  0  0  0  0  0
   15.6474   10.4759    2.6596 C   0  0  0  1  0  0  0  0  0  0  0  0
   16.3451   10.7235    1.4903 C   0  0  0  1  0  0  0  0  0  0  0  0
   19.5418   15.4832    3.7994 N   0  0  0  1  0  0  0  0  0  0  0  0
   20.5879   16.3341    4.1755 C   0  0  0  1  0  0  0  0  0  0  0  0
   21.2547   16.1231    5.3956 C   0  0  0  1  0  0  0  0  0  0  0  0
   22.2391   17.0602    5.7405 C   0  0  0  1  0  0  0  0  0  0  0  0
   22.4884   18.1636    4.9006 C   0  0  0  1  0  0  0  0  0  0  0  0
   21.7389   18.3882    3.7573 C   0  0  0  1  0  0  0  0  0  0  0  0
   20.7845   17.4725    3.3671 C   0  0  0  1  0  0  0  0  0  0  0  0
   23.0584   17.0116    6.8747 N   0  0  0  1  0  0  0  0  0  0  0  0
   23.0273   16.2522    8.0504 C   0  0  0  1  0  0  0  0  0  0  0  0
   24.1315   16.2613    9.0055 C   0  0  0  1  0  0  0  0  0  0  0  0
   24.8584   17.3996    9.3175 C   0  0  0  1  0  0  0  0  0  0  0  0
   25.8683   17.3428   10.2508 C   0  0  0  1  0  0  0  0  0  0  0  0
   26.1218   16.1714   10.9614 C   0  0  0  1  0  0  0  0  0  0  0  0
   25.4066   15.0224   10.6569 C   0  0  0  1  0  0  0  0  0  0  0  0
   24.4539   15.0612    9.6353 C   0  0  0  1  0  0  0  0  0  0  0  0
   22.1001   15.5463    8.4117 O   0  0  0  1  0  0  0  0  0  0  0  0
   13.5949    9.2807   -0.1318 C   0  0  0  1  0  0  0  0  0  0  0  0
   14.8253    9.9576   -0.6750 C   0  0  0  1  0  0  0  0  0  0  0  0
   15.7061    6.7387   -0.3784 C   0  0  0  1  0  0  0  0  0  0  0  0
   16.8445    9.6019    0.6223 C   0  0  0  1  0  0  0  0  0  0  0  0
   16.0215    9.1865   -0.3316 N   0  0  0  1  0  0  0  0  0  0  0  0
   16.2611    7.9587   -1.0770 C   0  0  0  1  0  0  0  0  0  0  0  0
   17.9251    9.0732    0.8573 O   0  0  0  1  0  0  0  0  0  0  0  0
   16.2572   17.7082    5.8057 H   0  0  0  1  0  0  0  0  0  0  0  0
   14.6695   15.9749    5.1950 H   0  0  0  1  0  0  0  0  0  0  0  0
   16.6105   13.9381    1.5861 H   0  0  0  1  0  0  0  0  0  0  0  0
   14.7669   11.3922    4.3445 H   0  0  0  1  0  0  0  0  0  0  0  0
   15.3961    9.5039    2.9310 H   0  0  0  1  0  0  0  0  0  0  0  0
   19.7208   14.7277    3.2015 H   0  0  0  1  0  0  0  0  0  0  0  0
   21.0296   15.3146    6.0098 H   0  0  0  1  0  0  0  0  0  0  0  0
   23.2529   18.8251    5.1447 H   0  0  0  1  0  0  0  0  0  0  0  0
   21.8961   19.2476    3.1931 H   0  0  0  1  0  0  0  0  0  0  0  0
   20.2260   17.6174    2.5019 H   0  0  0  1  0  0  0  0  0  0  0  0
   23.8098   17.6396    6.8380 H   0  0  0  1  0  0  0  0  0  0  0  0
   24.6399   18.2998    8.8447 H   0  0  0  1  0  0  0  0  0  0  0  0
   26.4504   18.1861   10.4282 H   0  0  0  1  0  0  0  0  0  0  0  0
   26.8405   16.1585   11.7130 H   0  0  0  1  0  0  0  0  0  0  0  0
   25.5777   14.1418   11.1830 H   0  0  0  1  0  0  0  0  0  0  0  0
   23.9797   14.1835    9.3416 H   0  0  0  1  0  0  0  0  0  0  0  0
   13.2011    8.6113   -0.8678 H   0  0  0  1  0  0  0  0  0  0  0  0
   12.8587   10.0190    0.1087 H   0  0  0  1  0  0  0  0  0  0  0  0
   13.8505    8.7308    0.7498 H   0  0  0  1  0  0  0  0  0  0  0  0
   14.9042   10.9380   -0.2535 H   0  0  0  1  0  0  0  0  0  0  0  0
   14.7467   10.0318   -1.7395 H   0  0  0  1  0  0  0  0  0  0  0  0
   16.2396    6.8193    0.5457 H   0  0  0  1  0  0  0  0  0  0  0  0
   15.9422    5.8350   -0.9005 H   0  0  0  1  0  0  0  0  0  0  0  0
   14.6474    6.8036   -0.2376 H   0  0  0  1  0  0  0  0  0  0  0  0
   15.7970    8.0446   -2.0374 H   0  0  0  1  0  0  0  0  0  0  0  0
   17.3164    7.8328   -1.2003 H   0  0  0  1  0  0  0  0  0  0  0  0
  1  2  1  0  0  0  0
  1  6  2  0  0  0  0
  2  3  2  0  0  0  0
  2 14  1  0  0  0  0
  3  4  1  0  0  0  0
  4  5  2  0  0  0  0
  4 37  1  0  0  0  0
  5  6  1  0  0  0  0
  5 38  1  0  0  0  0
  6  7  1  0  0  0  0
  7  8  1  0  0  0  0
  8 10  1  0  0  0  0
  8 11  2  0  0  0  0
  9 10  2  0  0  0  0
  9 13  1  0  0  0  0
 10 39  1  0  0  0  0
 11 12  1  0  0  0  0
 11 40  1  0  0  0  0
 12 13  2  0  0  0  0
 12 41  1  0  0  0  0
 13 33  1  0  0  0  0
 14 15  1  0  0  0  0
 14 42  1  0  0  0  0
 15 16  1  0  0  0  0
 15 20  2  0  0  0  0
 16 17  2  0  0  0  0
 16 43  1  0  0  0  0
 17 18  1  0  0  0  0
 17 21  1  0  0  0  0
 18 19  2  0  0  0  0
 18 44  1  0  0  0  0
 19 20  1  0  0  0  0
 19 45  1  0  0  0  0
 20 46  1  0  0  0  0
 21 22  1  0  0  0  0
 21 47  1  0  0  0  0
 22 23  1  0  0  0  0
 22 29  2  0  0  0  0
 23 24  1  0  0  0  0
 23 28  2  0  0  0  0
 24 25  2  0  0  0  0
 24 48  1  0  0  0  0
 25 26  1  0  0  0  0
 25 49  1  0  0  0  0
 26 27  2  0  0  0  0
 26 50  1  0  0  0  0
 27 28  1  0  0  0  0
 27 51  1  0  0  0  0
 28 52  1  0  0  0  0
 30 31  1  0  0  0  0
 30 53  1  0  0  0  0
 30 54  1  0  0  0  0
 30 55  1  0  0  0  0
 31 34  1  0  0  0  0
 31 56  1  0  0  0  0
 31 57  1  0  0  0  0
 32 35  1  0  0  0  0
 32 58  1  0  0  0  0
 32 59  1  0  0  0  0
 32 60  1  0  0  0  0
 33 34  1  0  0  0  0
 33 36  2  0  0  0  0
 34 35  1  0  0  0  0
 35 61  1  0  0  0  0
 35 62  1  0  0  0  0
M  END
> <BCLConfClusterSize>
1

> <ConfClashScore>
0 

> <ConfOneFourInteractionScore>
-0.967908 

> <ConfScore>
0.529367 

> <ConfScorePBest>
0.00963891 

> <ConfTolerance>
0 

> <FilterEnsembleComparerType>
less_equal

> <FilterEnsembleComparerValue>
0

> <FilterEnsembleConformerComparer>
SymmetryRealSpaceRMSD

> <Reaction>
Mrv2113123120212001,IMX,

$$$$
