


 36 38  0  0  0  0  0  0  0  0999 V2000
   20.7863   17.4513    3.4021 C   0  0  0  1  0  0  0  0  0  0  0  0
   21.7625   18.3623    3.7748 C   0  0  0  1  0  0  0  0  0  0  0  0
   22.4870   18.1627    4.9347 C   0  0  0  1  0  0  0  0  0  0  0  0
   22.2340   17.0546    5.7282 C   0  0  0  1  0  0  0  0  0  0  0  0
   21.2607   16.1464    5.3565 C   0  0  0  1  0  0  0  0  0  0  0  0
   20.5339   16.3464    4.1932 C   0  0  0  1  0  0  0  0  0  0  0  0
   19.5585   15.4424    3.8249 O   0  0  0  1  0  0  0  0  0  0  0  0
   19.9078   14.1385    3.6000 C   0  0  0  1  0  0  0  0  0  0  0  0
   19.4329   11.8181    3.2577 N   0  0  0  1  0  0  0  0  0  0  0  0
   19.0342   13.0752    3.4745 C   0  0  0  1  0  0  0  0  0  0  0  0
   21.2655   13.8997    3.4940 C   0  0  0  1  0  0  0  0  0  0  0  0
   21.6962   12.6065    3.2708 C   0  0  0  1  0  0  0  0  0  0  0  0
   20.7523   11.6003    3.1615 C   0  0  0  1  0  0  0  0  0  0  0  0
   23.0485   17.0101    6.8659 N   0  0  0  1  0  0  0  0  0  0  0  0
   23.0196   16.2513    8.0421 C   0  0  0  1  0  0  0  0  0  0  0  0
   24.1248   16.2623    8.9960 C   0  0  0  1  0  0  0  0  0  0  0  0
   24.8507   17.4016    9.3066 C   0  0  0  1  0  0  0  0  0  0  0  0
   25.8617   17.3465   10.2388 C   0  0  0  1  0  0  0  0  0  0  0  0
   26.1173   16.1758   10.9498 C   0  0  0  1  0  0  0  0  0  0  0  0
   25.4032   15.0258   10.6467 C   0  0  0  1  0  0  0  0  0  0  0  0
   24.4493   15.0629    9.6261 C   0  0  0  1  0  0  0  0  0  0  0  0
   22.0936   15.5446    8.4048 O   0  0  0  1  0  0  0  0  0  0  0  0
   17.7106   13.2786    3.5699 F   0  0  0  1  0  0  0  0  0  0  0  0
   20.2439   17.5993    2.5272 H   0  0  0  1  0  0  0  0  0  0  0  0
   21.9496   19.1958    3.1816 H   0  0  0  1  0  0  0  0  0  0  0  0
   23.2222   18.8439    5.2123 H   0  0  0  1  0  0  0  0  0  0  0  0
   21.0736   15.3129    5.9496 H   0  0  0  1  0  0  0  0  0  0  0  0
   21.9492   14.6786    3.5807 H   0  0  0  1  0  0  0  0  0  0  0  0
   22.7105   12.3929    3.1864 H   0  0  0  1  0  0  0  0  0  0  0  0
   21.0824   10.6280    2.9966 H   0  0  0  1  0  0  0  0  0  0  0  0
   23.7959   17.6431    6.8319 H   0  0  0  1  0  0  0  0  0  0  0  0
   24.6306   18.3013    8.8335 H   0  0  0  1  0  0  0  0  0  0  0  0
   26.4430   18.1907   10.4151 H   0  0  0  1  0  0  0  0  0  0  0  0
   26.8368   16.1643   11.7007 H   0  0  0  1  0  0  0  0  0  0  0  0
   25.5758   14.1457   11.1732 H   0  0  0  1  0  0  0  0  0  0  0  0
   23.9758   14.1845    9.3335 H   0  0  0  1  0  0  0  0  0  0  0  0
  1  2  1  0  0  0  0
  1  6  2  0  0  0  0
  1 24  1  0  0  0  0
  2  3  2  0  0  0  0
  2 25  1  0  0  0  0
  3  4  1  0  0  0  0
  3 26  1  0  0  0  0
  4  5  2  0  0  0  0
  4 14  1  0  0  0  0
  5  6  1  0  0  0  0
  5 27  1  0  0  0  0
  6  7  1  0  0  0  0
  7  8  1  0  0  0  0
  8 10  1  0  0  0  0
  8 11  2  0  0  0  0
  9 10  2  0  0  0  0
  9 13  1  0  0  0  0
 10 23  1  0  0  0  0
 11 12  1  0  0  0  0
 11 28  1  0  0  0  0
 12 13  2  0  0  0  0
 12 29  1  0  0  0  0
 13 30  1  0  0  0  0
 14 15  1  0  0  0  0
 14 31  1  0  0  0  0
 15 16  1  0  0  0  0
 15 22  2  0  0  0  0
 16 17  1  0  0  0  0
 16 21  2  0  0  0  0
 17 18  2  0  0  0  0
 17 32  1  0  0  0  0
 18 19  1  0  0  0  0
 18 33  1  0  0  0  0
 19 20  2  0  0  0  0
 19 34  1  0  0  0  0
 20 21  1  0  0  0  0
 20 35  1  0  0  0  0
 21 36  1  0  0  0  0
M  END
> <BCLConfClusterSize>
1

> <ConfClashScore>
0 

> <ConfOneFourInteractionScore>
-0.981747 

> <ConfScore>
0.024473 

> <ConfScorePBest>
0.0053085 

> <ConfTolerance>
0 

> <FilterEnsembleComparerType>
less_equal

> <FilterEnsembleComparerValue>
0

> <FilterEnsembleConformerComparer>
SymmetryRealSpaceRMSD

> <Reaction>
Mrv2113010120221237,IMX,

$$$$



 36 38  0  0  0  0  0  0  0  0999 V2000
   20.7721   17.4611    3.4128 C   0  0  0  1  0  0  0  0  0  0  0  0
   21.7660   18.3583    3.7715 C   0  0  0  1  0  0  0  0  0  0  0  0
   22.5002   18.1522    4.9242 C   0  0  0  1  0  0  0  0  0  0  0  0
   22.2390   17.0509    5.7244 C   0  0  0  1  0  0  0  0  0  0  0  0
   21.2481   16.1561    5.3670 C   0  0  0  1  0  0  0  0  0  0  0  0
   20.5118   16.3631    4.2108 C   0  0  0  1  0  0  0  0  0  0  0  0
   19.5859   15.4242    3.8039 O   0  0  0  1  0  0  0  0  0  0  0  0
   19.7437   14.8110    2.5777 C   0  0  0  1  0  0  0  0  0  0  0  0
   19.4152   14.6222    0.2148 N   0  0  0  1  0  0  0  0  0  0  0  0
   19.2328   15.2603    1.3749 C   0  0  0  1  0  0  0  0  0  0  0  0
   20.4854   13.6443    2.5908 C   0  0  0  1  0  0  0  0  0  0  0  0
   20.6836   12.9708    1.4013 C   0  0  0  1  0  0  0  0  0  0  0  0
   20.1326   13.4900    0.2429 C   0  0  0  1  0  0  0  0  0  0  0  0
   23.0485   17.0101    6.8659 N   0  0  0  1  0  0  0  0  0  0  0  0
   23.0196   16.2513    8.0421 C   0  0  0  1  0  0  0  0  0  0  0  0
   24.1248   16.2623    8.9960 C   0  0  0  1  0  0  0  0  0  0  0  0
   24.8507   17.4016    9.3066 C   0  0  0  1  0  0  0  0  0  0  0  0
   25.8616   17.3465   10.2388 C   0  0  0  1  0  0  0  0  0  0  0  0
   26.1173   16.1758   10.9498 C   0  0  0  1  0  0  0  0  0  0  0  0
   25.4032   15.0258   10.6467 C   0  0  0  1  0  0  0  0  0  0  0  0
   24.4493   15.0629    9.6261 C   0  0  0  1  0  0  0  0  0  0  0  0
   22.0936   15.5446    8.4048 O   0  0  0  1  0  0  0  0  0  0  0  0
   20.1960   17.6215    2.5015 H   0  0  0  1  0  0  0  0  0  0  0  0
   21.9685   19.2266    3.1444 H   0  0  0  1  0  0  0  0  0  0  0  0
   23.2845   18.8555    5.2039 H   0  0  0  1  0  0  0  0  0  0  0  0
   21.0456   15.2879    5.9941 H   0  0  0  1  0  0  0  0  0  0  0  0
   18.6514   16.1823    1.3721 H   0  0  0  1  0  0  0  0  0  0  0  0
   20.9056   13.2634    3.5217 H   0  0  0  1  0  0  0  0  0  0  0  0
   21.2630   12.0479    1.3755 H   0  0  0  1  0  0  0  0  0  0  0  0
   20.2895   12.9523   -0.6922 H   0  0  0  1  0  0  0  0  0  0  0  0
   23.8608   17.7057    6.8323 H   0  0  0  1  0  0  0  0  0  0  0  0
   24.6200   18.3445    8.8108 H   0  0  0  1  0  0  0  0  0  0  0  0
   26.4709   18.2312   10.4236 H   0  0  0  1  0  0  0  0  0  0  0  0
   26.8714   16.1637   11.7368 H   0  0  0  1  0  0  0  0  0  0  0  0
   25.5841   14.1034   11.1984 H   0  0  0  1  0  0  0  0  0  0  0  0
   23.9530   14.1422    9.3194 H   0  0  0  1  0  0  0  0  0  0  0  0
  1  2  1  0  0  0  0
  1  6  2  0  0  0  0
  1 23  1  0  0  0  0
  2  3  2  0  0  0  0
  2 24  1  0  0  0  0
  3  4  1  0  0  0  0
  3 25  1  0  0  0  0
  4  5  2  0  0  0  0
  4 14  1  0  0  0  0
  5  6  1  0  0  0  0
  5 26  1  0  0  0  0
  6  7  1  0  0  0  0
  7  8  1  0  0  0  0
  8 10  1  0  0  0  0
  8 11  2  0  0  0  0
  9 10  2  0  0  0  0
  9 13  1  0  0  0  0
 10 27  1  0  0  0  0
 11 12  1  0  0  0  0
 11 28  1  0  0  0  0
 12 13  2  0  0  0  0
 12 29  1  0  0  0  0
 13 30  1  0  0  0  0
 14 15  1  0  0  0  0
 14 31  1  0  0  0  0
 15 16  1  0  0  0  0
 15 22  2  0  0  0  0
 16 17  1  0  0  0  0
 16 21  2  0  0  0  0
 17 18  2  0  0  0  0
 17 32  1  0  0  0  0
 18 19  1  0  0  0  0
 18 33  1  0  0  0  0
 19 20  2  0  0  0  0
 19 34  1  0  0  0  0
 20 21  1  0  0  0  0
 20 35  1  0  0  0  0
 21 36  1  0  0  0  0
M  END
> <Reaction>
Mrv2113010120221237,IMX,

$$$$



 36 38  0  0  0  0  0  0  0  0999 V2000
   20.7987   17.4797    3.3953 C   0  0  0  1  0  0  0  0  0  0  0  0
   21.7805   18.3719    3.7828 C   0  0  0  1  0  0  0  0  0  0  0  0
   22.4932   18.1540    4.9516 C   0  0  0  1  0  0  0  0  0  0  0  0
   22.2256   17.0414    5.7268 C   0  0  0  1  0  0  0  0  0  0  0  0
   21.2408   16.1465    5.3383 C   0  0  0  1  0  0  0  0  0  0  0  0
   20.5304   16.3640    4.1728 C   0  0  0  1  0  0  0  0  0  0  0  0
   19.5814   15.4033    3.8881 O   0  0  0  1  0  0  0  0  0  0  0  0
   18.3658   15.4602    4.5139 C   0  0  0  1  0  0  0  0  0  0  0  0
   16.0960   16.1866    4.7312 N   0  0  0  1  0  0  0  0  0  0  0  0
   17.2605   16.1645    4.0758 C   0  0  0  1  0  0  0  0  0  0  0  0
   18.2703   14.7358    5.6877 C   0  0  0  1  0  0  0  0  0  0  0  0
   17.0746   14.7476    6.3791 C   0  0  0  1  0  0  0  0  0  0  0  0
   16.0188   15.4834    5.8700 C   0  0  0  1  0  0  0  0  0  0  0  0
   23.0452   17.0102    6.8613 N   0  0  0  1  0  0  0  0  0  0  0  0
   23.0164   16.2516    8.0376 C   0  0  0  1  0  0  0  0  0  0  0  0
   24.1217   16.2628    8.9914 C   0  0  0  1  0  0  0  0  0  0  0  0
   24.8476   17.4022    9.3018 C   0  0  0  1  0  0  0  0  0  0  0  0
   25.8586   17.3474   10.2339 C   0  0  0  1  0  0  0  0  0  0  0  0
   26.1144   16.1768   10.9451 C   0  0  0  1  0  0  0  0  0  0  0  0
   25.4003   15.0267   10.6422 C   0  0  0  1  0  0  0  0  0  0  0  0
   24.4463   15.0636    9.6217 C   0  0  0  1  0  0  0  0  0  0  0  0
   22.0905   15.5449    8.4005 O   0  0  0  1  0  0  0  0  0  0  0  0
   19.2974   14.0193    6.1833 F   0  0  0  1  0  0  0  0  0  0  0  0
   20.2613   17.6455    2.5205 H   0  0  0  1  0  0  0  0  0  0  0  0
   21.9847   19.2070    3.1974 H   0  0  0  1  0  0  0  0  0  0  0  0
   23.2293   18.8276    5.2452 H   0  0  0  1  0  0  0  0  0  0  0  0
   21.0367   15.3114    5.9236 H   0  0  0  1  0  0  0  0  0  0  0  0
   17.3390   16.7050    3.1907 H   0  0  0  1  0  0  0  0  0  0  0  0
   16.9697   14.2136    7.2654 H   0  0  0  1  0  0  0  0  0  0  0  0
   15.1220   15.4913    6.3964 H   0  0  0  1  0  0  0  0  0  0  0  0
   23.7887   17.6476    6.8247 H   0  0  0  1  0  0  0  0  0  0  0  0
   24.6274   18.3018    8.8286 H   0  0  0  1  0  0  0  0  0  0  0  0
   26.4399   18.1916   10.4100 H   0  0  0  1  0  0  0  0  0  0  0  0
   26.8339   16.1654   11.6959 H   0  0  0  1  0  0  0  0  0  0  0  0
   25.5730   14.1467   11.1688 H   0  0  0  1  0  0  0  0  0  0  0  0
   23.9728   14.1850    9.3292 H   0  0  0  1  0  0  0  0  0  0  0  0
  1  2  1  0  0  0  0
  1  6  2  0  0  0  0
  1 24  1  0  0  0  0
  2  3  2  0  0  0  0
  2 25  1  0  0  0  0
  3  4  1  0  0  0  0
  3 26  1  0  0  0  0
  4  5  2  0  0  0  0
  4 14  1  0  0  0  0
  5  6  1  0  0  0  0
  5 27  1  0  0  0  0
  6  7  1  0  0  0  0
  7  8  1  0  0  0  0
  8 10  1  0  0  0  0
  8 11  2  0  0  0  0
  9 10  2  0  0  0  0
  9 13  1  0  0  0  0
 10 28  1  0  0  0  0
 11 12  1  0  0  0  0
 11 23  1  0  0  0  0
 12 13  2  0  0  0  0
 12 29  1  0  0  0  0
 13 30  1  0  0  0  0
 14 15  1  0  0  0  0
 14 31  1  0  0  0  0
 15 16  1  0  0  0  0
 15 22  2  0  0  0  0
 16 17  1  0  0  0  0
 16 21  2  0  0  0  0
 17 18  2  0  0  0  0
 17 32  1  0  0  0  0
 18 19  1  0  0  0  0
 18 33  1  0  0  0  0
 19 20  2  0  0  0  0
 19 34  1  0  0  0  0
 20 21  1  0  0  0  0
 20 35  1  0  0  0  0
 21 36  1  0  0  0  0
M  END
> <BCLConfClusterSize>
1

> <ConfClashScore>
0 

> <ConfOneFourInteractionScore>
-0.981747 

> <ConfScore>
0.0298534 

> <ConfScorePBest>
0.005 

> <ConfTolerance>
0 

> <FilterEnsembleComparerType>
less_equal

> <FilterEnsembleComparerValue>
0

> <FilterEnsembleConformerComparer>
SymmetryRealSpaceRMSD

> <Reaction>
Mrv2113010120221237,IMX,

$$$$



 36 38  0  0  0  0  0  0  0  0999 V2000
   20.7610   17.4585    3.4208 C   0  0  0  1  0  0  0  0  0  0  0  0
   21.7597   18.3504    3.7636 C   0  0  0  1  0  0  0  0  0  0  0  0
   22.5022   18.1500    4.9169 C   0  0  0  1  0  0  0  0  0  0  0  0
   22.2473   17.0552    5.7212 C   0  0  0  1  0  0  0  0  0  0  0  0
   21.2458   16.1607    5.3775 C   0  0  0  1  0  0  0  0  0  0  0  0
   20.5056   16.3606    4.2276 C   0  0  0  1  0  0  0  0  0  0  0  0
   19.5916   15.4326    3.7718 O   0  0  0  1  0  0  0  0  0  0  0  0
   18.2729   15.6354    4.1058 C   0  0  0  1  0  0  0  0  0  0  0  0
   16.8268   16.3103    5.8939 N   0  0  0  1  0  0  0  0  0  0  0  0
   18.0499   16.0677    5.4014 C   0  0  0  1  0  0  0  0  0  0  0  0
   17.1876   15.4464    3.2727 C   0  0  0  1  0  0  0  0  0  0  0  0
   15.9204   15.6970    3.7657 C   0  0  0  1  0  0  0  0  0  0  0  0
   15.7884   16.1229    5.0737 C   0  0  0  1  0  0  0  0  0  0  0  0
   23.0497   17.0100    6.8676 N   0  0  0  1  0  0  0  0  0  0  0  0
   23.0207   16.2512    8.0437 C   0  0  0  1  0  0  0  0  0  0  0  0
   24.1259   16.2621    8.9976 C   0  0  0  1  0  0  0  0  0  0  0  0
   24.8518   17.4014    9.3083 C   0  0  0  1  0  0  0  0  0  0  0  0
   25.8627   17.3462   10.2406 C   0  0  0  1  0  0  0  0  0  0  0  0
   26.1184   16.1755   10.9515 C   0  0  0  1  0  0  0  0  0  0  0  0
   25.4042   15.0255   10.6483 C   0  0  0  1  0  0  0  0  0  0  0  0
   24.4504   15.0627    9.6277 C   0  0  0  1  0  0  0  0  0  0  0  0
   22.0947   15.5444    8.4064 O   0  0  0  1  0  0  0  0  0  0  0  0
   14.8352   15.5291    2.9859 F   0  0  0  1  0  0  0  0  0  0  0  0
   20.2013   17.6111    2.5577 H   0  0  0  1  0  0  0  0  0  0  0  0
   21.9541   19.1719    3.1563 H   0  0  0  1  0  0  0  0  0  0  0  0
   23.2510   18.8233    5.1769 H   0  0  0  1  0  0  0  0  0  0  0  0
   21.0514   15.3391    5.9849 H   0  0  0  1  0  0  0  0  0  0  0  0
   18.8710   16.2115    6.0232 H   0  0  0  1  0  0  0  0  0  0  0  0
   17.3209   15.1219    2.2936 H   0  0  0  1  0  0  0  0  0  0  0  0
   14.8320   16.3070    5.4385 H   0  0  0  1  0  0  0  0  0  0  0  0
   23.7930   17.6482    6.8410 H   0  0  0  1  0  0  0  0  0  0  0  0
   24.6317   18.3011    8.8353 H   0  0  0  1  0  0  0  0  0  0  0  0
   26.4441   18.1904   10.4169 H   0  0  0  1  0  0  0  0  0  0  0  0
   26.8378   16.1639   11.7024 H   0  0  0  1  0  0  0  0  0  0  0  0
   25.5768   14.1454   11.1747 H   0  0  0  1  0  0  0  0  0  0  0  0
   23.9769   14.1842    9.3350 H   0  0  0  1  0  0  0  0  0  0  0  0
  1  2  1  0  0  0  0
  1  6  2  0  0  0  0
  1 24  1  0  0  0  0
  2  3  2  0  0  0  0
  2 25  1  0  0  0  0
  3  4  1  0  0  0  0
  3 26  1  0  0  0  0
  4  5  2  0  0  0  0
  4 14  1  0  0  0  0
  5  6  1  0  0  0  0
  5 27  1  0  0  0  0
  6  7  1  0  0  0  0
  7  8  1  0  0  0  0
  8 10  1  0  0  0  0
  8 11  2  0  0  0  0
  9 10  2  0  0  0  0
  9 13  1  0  0  0  0
 10 28  1  0  0  0  0
 11 12  1  0  0  0  0
 11 29  1  0  0  0  0
 12 13  2  0  0  0  0
 12 23  1  0  0  0  0
 13 30  1  0  0  0  0
 14 15  1  0  0  0  0
 14 31  1  0  0  0  0
 15 16  1  0  0  0  0
 15 22  2  0  0  0  0
 16 17  1  0  0  0  0
 16 21  2  0  0  0  0
 17 18  2  0  0  0  0
 17 32  1  0  0  0  0
 18 19  1  0  0  0  0
 18 33  1  0  0  0  0
 19 20  2  0  0  0  0
 19 34  1  0  0  0  0
 20 21  1  0  0  0  0
 20 35  1  0  0  0  0
 21 36  1  0  0  0  0
M  END
> <BCLConfClusterSize>
1

> <ConfClashScore>
0 

> <ConfOneFourInteractionScore>
-0.981747 

> <ConfScore>
0.0361125 

> <ConfScorePBest>
0.005 

> <ConfTolerance>
0 

> <FilterEnsembleComparerType>
less_equal

> <FilterEnsembleComparerValue>
0

> <FilterEnsembleConformerComparer>
SymmetryRealSpaceRMSD

> <Reaction>
Mrv2113010120221237,IMX,

$$$$



 36 38  0  0  0  0  0  0  0  0999 V2000
   20.7725   17.4263    3.4106 C   0  0  0  1  0  0  0  0  0  0  0  0
   21.7440   18.3496    3.7647 C   0  0  0  1  0  0  0  0  0  0  0  0
   22.4807   18.1691    4.9201 C   0  0  0  1  0  0  0  0  0  0  0  0
   22.2444   17.0675    5.7276 C   0  0  0  1  0  0  0  0  0  0  0  0
   21.2758   16.1468    5.3748 C   0  0  0  1  0  0  0  0  0  0  0  0
   20.5370   16.3280    4.2160 C   0  0  0  1  0  0  0  0  0  0  0  0
   19.5437   15.4835    3.7636 O   0  0  0  1  0  0  0  0  0  0  0  0
   18.5760   15.1666    4.6880 C   0  0  0  1  0  0  0  0  0  0  0  0
   16.4988   15.5127    5.8247 N   0  0  0  1  0  0  0  0  0  0  0  0
   17.4047   15.8660    4.9078 C   0  0  0  1  0  0  0  0  0  0  0  0
   18.8309   14.0406    5.4488 C   0  0  0  1  0  0  0  0  0  0  0  0
   17.9063   13.6607    6.4019 C   0  0  0  1  0  0  0  0  0  0  0  0
   16.7608   14.4215    6.5581 C   0  0  0  1  0  0  0  0  0  0  0  0
   23.0515   17.0100    6.8701 N   0  0  0  1  0  0  0  0  0  0  0  0
   23.0224   16.2510    8.0462 C   0  0  0  1  0  0  0  0  0  0  0  0
   24.1276   16.2618    9.0001 C   0  0  0  1  0  0  0  0  0  0  0  0
   24.8535   17.4011    9.3109 C   0  0  0  1  0  0  0  0  0  0  0  0
   25.8644   17.3458   10.2432 C   0  0  0  1  0  0  0  0  0  0  0  0
   26.1200   16.1750   10.9540 C   0  0  0  1  0  0  0  0  0  0  0  0
   25.4058   15.0251   10.6507 C   0  0  0  1  0  0  0  0  0  0  0  0
   24.4520   15.0624    9.6301 C   0  0  0  1  0  0  0  0  0  0  0  0
   22.0964   15.5443    8.4087 O   0  0  0  1  0  0  0  0  0  0  0  0
   15.8459   14.0795    7.4792 F   0  0  0  1  0  0  0  0  0  0  0  0
   20.2209   17.5600    2.5391 H   0  0  0  1  0  0  0  0  0  0  0  0
   21.9185   19.1781    3.1608 H   0  0  0  1  0  0  0  0  0  0  0  0
   23.2123   18.8597    5.1836 H   0  0  0  1  0  0  0  0  0  0  0  0
   21.1013   15.3183    5.9786 H   0  0  0  1  0  0  0  0  0  0  0  0
   17.2185   16.7106    4.3301 H   0  0  0  1  0  0  0  0  0  0  0  0
   19.7018   13.4903    5.3061 H   0  0  0  1  0  0  0  0  0  0  0  0
   18.0678   12.8190    6.9910 H   0  0  0  1  0  0  0  0  0  0  0  0
   23.8019   17.6395    6.8399 H   0  0  0  1  0  0  0  0  0  0  0  0
   24.6335   18.3008    8.8379 H   0  0  0  1  0  0  0  0  0  0  0  0
   26.4458   18.1899   10.4196 H   0  0  0  1  0  0  0  0  0  0  0  0
   26.8394   16.1633   11.7050 H   0  0  0  1  0  0  0  0  0  0  0  0
   25.5784   14.1449   11.1771 H   0  0  0  1  0  0  0  0  0  0  0  0
   23.9785   14.1839    9.3373 H   0  0  0  1  0  0  0  0  0  0  0  0
  1  2  1  0  0  0  0
  1  6  2  0  0  0  0
  1 24  1  0  0  0  0
  2  3  2  0  0  0  0
  2 25  1  0  0  0  0
  3  4  1  0  0  0  0
  3 26  1  0  0  0  0
  4  5  2  0  0  0  0
  4 14  1  0  0  0  0
  5  6  1  0  0  0  0
  5 27  1  0  0  0  0
  6  7  1  0  0  0  0
  7  8  1  0  0  0  0
  8 10  1  0  0  0  0
  8 11  2  0  0  0  0
  9 10  2  0  0  0  0
  9 13  1  0  0  0  0
 10 28  1  0  0  0  0
 11 12  1  0  0  0  0
 11 29  1  0  0  0  0
 12 13  2  0  0  0  0
 12 30  1  0  0  0  0
 13 23  1  0  0  0  0
 14 15  1  0  0  0  0
 14 31  1  0  0  0  0
 15 16  1  0  0  0  0
 15 22  2  0  0  0  0
 16 17  1  0  0  0  0
 16 21  2  0  0  0  0
 17 18  2  0  0  0  0
 17 32  1  0  0  0  0
 18 19  1  0  0  0  0
 18 33  1  0  0  0  0
 19 20  2  0  0  0  0
 19 34  1  0  0  0  0
 20 21  1  0  0  0  0
 20 35  1  0  0  0  0
 21 36  1  0  0  0  0
M  END
> <BCLConfClusterSize>
1

> <ConfClashScore>
0 

> <ConfOneFourInteractionScore>
-0.981747 

> <ConfScore>
0.0213471 

> <ConfScorePBest>
0.005 

> <ConfTolerance>
0 

> <FilterEnsembleComparerType>
less_equal

> <FilterEnsembleComparerValue>
0

> <FilterEnsembleConformerComparer>
SymmetryRealSpaceRMSD

> <Reaction>
Mrv2113010120221237,IMX,

$$$$
