


 46 49  0  0  0  0  0  0  0  0999 V2000
   17.4514   14.6956    3.8926 N   0  0  0  1  0  0  0  0  0  0  0  0
   18.2419   15.7029    4.2707 C   0  0  0  1  0  0  0  0  0  0  0  0
   17.8880   16.7966    4.9453 N   0  0  0  1  0  0  0  0  0  0  0  0
   16.5881   16.8771    5.2753 C   0  0  0  1  0  0  0  0  0  0  0  0
   15.6739   15.8973    4.9366 C   0  0  0  1  0  0  0  0  0  0  0  0
   16.1608   14.8108    4.2384 C   0  0  0  1  0  0  0  0  0  0  0  0
   15.2548   13.8261    3.9011 O   0  0  0  1  0  0  0  0  0  0  0  0
   15.1258   13.4524    2.5717 C   0  0  0  1  0  0  0  0  0  0  0  0
   14.2801   11.8940    0.9646 N   0  0  0  1  0  0  0  0  0  0  0  0
   14.4351   12.3065    2.2264 C   0  0  0  1  0  0  0  0  0  0  0  0
   15.6860   14.2195    1.5670 C   0  0  0  1  0  0  0  0  0  0  0  0
   15.5367   13.8083    0.2569 C   0  0  0  1  0  0  0  0  0  0  0  0
   14.8321   12.6449    0.0009 C   0  0  0  1  0  0  0  0  0  0  0  0
   19.5418   15.4832    3.7994 N   0  0  0  1  0  0  0  0  0  0  0  0
   20.5879   16.3341    4.1755 C   0  0  0  1  0  0  0  0  0  0  0  0
   21.2547   16.1231    5.3956 C   0  0  0  1  0  0  0  0  0  0  0  0
   22.2391   17.0602    5.7405 C   0  0  0  1  0  0  0  0  0  0  0  0
   22.4884   18.1636    4.9006 C   0  0  0  1  0  0  0  0  0  0  0  0
   21.7389   18.3882    3.7573 C   0  0  0  1  0  0  0  0  0  0  0  0
   20.7845   17.4725    3.3671 C   0  0  0  1  0  0  0  0  0  0  0  0
   23.0584   17.0116    6.8747 N   0  0  0  1  0  0  0  0  0  0  0  0
   23.0273   16.2522    8.0504 C   0  0  0  1  0  0  0  0  0  0  0  0
   24.1315   16.2613    9.0055 C   0  0  0  1  0  0  0  0  0  0  0  0
   24.8584   17.3996    9.3175 C   0  0  0  1  0  0  0  0  0  0  0  0
   25.8683   17.3428   10.2508 C   0  0  0  1  0  0  0  0  0  0  0  0
   26.1218   16.1714   10.9614 C   0  0  0  1  0  0  0  0  0  0  0  0
   25.4066   15.0224   10.6569 C   0  0  0  1  0  0  0  0  0  0  0  0
   24.4539   15.0612    9.6353 C   0  0  0  1  0  0  0  0  0  0  0  0
   22.1001   15.5463    8.4117 O   0  0  0  1  0  0  0  0  0  0  0  0
   16.2572   17.7082    5.8057 H   0  0  0  1  0  0  0  0  0  0  0  0
   14.6695   15.9749    5.1950 H   0  0  0  1  0  0  0  0  0  0  0  0
   14.0143   11.7358    2.9872 H   0  0  0  1  0  0  0  0  0  0  0  0
   16.2095   15.0892    1.7933 H   0  0  0  1  0  0  0  0  0  0  0  0
   15.9460   14.3622   -0.5223 H   0  0  0  1  0  0  0  0  0  0  0  0
   14.7256   12.3383   -0.9872 H   0  0  0  1  0  0  0  0  0  0  0  0
   19.7208   14.7277    3.2015 H   0  0  0  1  0  0  0  0  0  0  0  0
   21.0296   15.3146    6.0098 H   0  0  0  1  0  0  0  0  0  0  0  0
   23.2529   18.8251    5.1447 H   0  0  0  1  0  0  0  0  0  0  0  0
   21.8961   19.2476    3.1931 H   0  0  0  1  0  0  0  0  0  0  0  0
   20.2260   17.6174    2.5019 H   0  0  0  1  0  0  0  0  0  0  0  0
   23.8098   17.6396    6.8380 H   0  0  0  1  0  0  0  0  0  0  0  0
   24.6399   18.2998    8.8447 H   0  0  0  1  0  0  0  0  0  0  0  0
   26.4504   18.1861   10.4282 H   0  0  0  1  0  0  0  0  0  0  0  0
   26.8405   16.1585   11.7130 H   0  0  0  1  0  0  0  0  0  0  0  0
   25.5777   14.1418   11.1830 H   0  0  0  1  0  0  0  0  0  0  0  0
   23.9797   14.1835    9.3416 H   0  0  0  1  0  0  0  0  0  0  0  0
  1  2  1  0  0  0  0
  1  6  2  0  0  0  0
  2  3  2  0  0  0  0
  2 14  1  0  0  0  0
  3  4  1  0  0  0  0
  4  5  2  0  0  0  0
  4 30  1  0  0  0  0
  5  6  1  0  0  0  0
  5 31  1  0  0  0  0
  6  7  1  0  0  0  0
  7  8  1  0  0  0  0
  8 10  1  0  0  0  0
  8 11  2  0  0  0  0
  9 10  2  0  0  0  0
  9 13  1  0  0  0  0
 10 32  1  0  0  0  0
 11 12  1  0  0  0  0
 11 33  1  0  0  0  0
 12 13  2  0  0  0  0
 12 34  1  0  0  0  0
 13 35  1  0  0  0  0
 14 15  1  0  0  0  0
 14 36  1  0  0  0  0
 15 16  1  0  0  0  0
 15 20  2  0  0  0  0
 16 17  2  0  0  0  0
 16 37  1  0  0  0  0
 17 18  1  0  0  0  0
 17 21  1  0  0  0  0
 18 19  2  0  0  0  0
 18 38  1  0  0  0  0
 19 20  1  0  0  0  0
 19 39  1  0  0  0  0
 20 40  1  0  0  0  0
 21 22  1  0  0  0  0
 21 41  1  0  0  0  0
 22 23  1  0  0  0  0
 22 29  2  0  0  0  0
 23 24  1  0  0  0  0
 23 28  2  0  0  0  0
 24 25  2  0  0  0  0
 24 42  1  0  0  0  0
 25 26  1  0  0  0  0
 25 43  1  0  0  0  0
 26 27  2  0  0  0  0
 26 44  1  0  0  0  0
 27 28  1  0  0  0  0
 27 45  1  0  0  0  0
 28 46  1  0  0  0  0
M  END
> <BCLConfClusterSize>
1

> <ConfClashScore>
0 

> <ConfOneFourInteractionScore>
-0.992003 

> <ConfScore>
0.0164169 

> <ConfScorePBest>
0.005 

> <ConfTolerance>
0 

> <FilterEnsembleComparerType>
less_equal

> <FilterEnsembleComparerValue>
0

> <FilterEnsembleConformerComparer>
SymmetryRealSpaceRMSD

> <Reaction>
Mrv2113123120212001,IMX,

$$$$
