


 32 32  0  0  0  0  0  0  0  0999 V2000
   -0.2362    3.0785   -3.0073 H   0  0  0  1  0  0  0  0  0  0  0  0
    0.8281    3.9722   -1.4343 C   0  0  0  1  0  0  0  0  0  0  0  0
   -1.1759    4.8495   -2.4968 N   0  0  0  1  0  0  0  0  0  0  0  0
   -0.4749    3.6159   -2.1133 C   0  0  0  1  0  0  0  0  0  0  0  0
    1.3561    3.1986   -0.6366 O   0  0  0  1  0  0  0  0  0  0  0  0
    1.3898    5.1556   -1.7279 N   0  0  0  1  0  0  0  0  0  0  0  0
   -1.4272    4.9985   -3.4322 H   0  0  0  1  0  0  0  0  0  0  0  0
   -1.4726    5.7721   -1.5688 C   0  0  0  1  0  0  0  0  0  0  0  0
    2.5464    5.6671   -1.0079 C   0  0  0  1  0  0  0  0  0  0  0  0
   -2.2584    6.9578   -2.1137 C   0  0  0  1  0  0  0  0  0  0  0  0
   -1.1583    5.6995   -0.3922 O   0  0  0  1  0  0  0  0  0  0  0  0
    1.0076    5.6938   -2.4522 H   0  0  0  1  0  0  0  0  0  0  0  0
    2.2701    5.8860    0.0024 H   0  0  0  1  0  0  0  0  0  0  0  0
    2.8960    6.5597   -1.4832 H   0  0  0  1  0  0  0  0  0  0  0  0
    3.3236    4.9316   -1.0135 H   0  0  0  1  0  0  0  0  0  0  0  0
   -1.5881    7.7659   -2.3204 H   0  0  0  1  0  0  0  0  0  0  0  0
   -2.9805    7.2703   -1.3886 H   0  0  0  1  0  0  0  0  0  0  0  0
   -2.7585    6.6702   -3.0148 H   0  0  0  1  0  0  0  0  0  0  0  0
   -4.5450    3.2736   -4.9687 F   0  0  0  1  0  0  0  0  0  0  0  0
   -4.3042    2.8606   -3.7096 C   0  0  0  1  0  0  0  0  0  0  0  0
   -3.0376    3.0011   -3.1642 C   0  0  0  1  0  0  0  0  0  0  0  0
   -2.7891    2.5724   -1.8741 C   0  0  0  1  0  0  0  0  0  0  0  0
   -3.8079    2.0067   -1.1235 C   0  0  0  1  0  0  0  0  0  0  0  0
   -5.0709    1.8665   -1.6670 C   0  0  0  1  0  0  0  0  0  0  0  0
   -5.3201    2.2965   -2.9611 C   0  0  0  1  0  0  0  0  0  0  0  0
   -1.3949    2.7213   -1.2759 C   0  0  0  1  0  0  0  0  0  0  0  0
   -2.2742    3.4292   -3.7260 H   0  0  0  1  0  0  0  0  0  0  0  0
   -3.6219    1.6877   -0.1512 H   0  0  0  1  0  0  0  0  0  0  0  0
   -5.8343    1.4384   -1.1052 H   0  0  0  1  0  0  0  0  0  0  0  0
   -6.2714    2.1947   -3.3688 H   0  0  0  1  0  0  0  0  0  0  0  0
   -1.4873    3.1475   -0.2988 H   0  0  0  1  0  0  0  0  0  0  0  0
   -0.9507    1.7507   -1.2017 H   0  0  0  1  0  0  0  0  0  0  0  0
  1  4  1  0  0  0  0
  2  4  1  0  0  0  0
  2  5  2  0  0  0  0
  2  6  1  0  0  0  0
  3  4  1  0  0  0  0
  3  7  1  0  0  0  0
  3  8  1  0  0  0  0
  4 26  1  0  0  0  0
  6  9  1  0  0  0  0
  6 12  1  0  0  0  0
  8 10  1  0  0  0  0
  8 11  2  0  0  0  0
  9 13  1  0  0  0  0
  9 14  1  0  0  0  0
  9 15  1  0  0  0  0
 10 16  1  0  0  0  0
 10 17  1  0  0  0  0
 10 18  1  0  0  0  0
 19 20  1  0  0  0  0
 20 21  4  0  0  0  0
 20 25  4  0  0  0  0
 21 22  4  0  0  0  0
 21 27  1  0  0  0  0
 22 23  4  0  0  0  0
 22 26  1  0  0  0  0
 23 24  4  0  0  0  0
 23 28  1  0  0  0  0
 24 25  4  0  0  0  0
 24 29  1  0  0  0  0
 25 30  1  0  0  0  0
 26 31  1  0  0  0  0
 26 32  1  0  0  0  0
M  END
> <BCLConfClusterSize>
1

> <ConfClashScore>
0.0007185 

> <ConfOneFourInteractionScore>
-0.931613 

> <ConfScore>
0.590556 

> <ConfScorePBest>
1 

> <RosettaParamsInstructions>
M  ROOT 3
M  POLY_N_BB 3
M  POLY_CA_BB 4
M  POLY_C_BB 2
M  POLY_O_BB 5
M  POLY_IGNORE 9 10 11 12 13 14 15 16 17 18 
M  POLY_UPPER 6
M  POLY_LOWER 8
M  POLY_CHG 0
M  POLY_PROPERTIES ALPHA_AA D_AA PROTEIN AROMATIC POLYMER 
M  END

$$$$
