


 32 32  0  0  0  0  0  0  0  0999 V2000
   -3.4506    2.2575   -1.5028 H   0  0  0  1  0  0  0  0  0  0  0  0
   -3.0566    2.2612    0.5692 C   0  0  0  1  0  0  0  0  0  0  0  0
   -2.4311    0.5216   -1.0738 N   0  0  0  1  0  0  0  0  0  0  0  0
   -2.6484    1.9456   -0.8671 C   0  0  0  1  0  0  0  0  0  0  0  0
   -3.7063    3.2587    0.8384 O   0  0  0  1  0  0  0  0  0  0  0  0
   -2.6558    1.3775    1.4969 N   0  0  0  1  0  0  0  0  0  0  0  0
   -1.5732    0.1304   -0.8066 H   0  0  0  1  0  0  0  0  0  0  0  0
   -3.3604   -0.2711   -1.6153 C   0  0  0  1  0  0  0  0  0  0  0  0
   -2.9787    1.4755    2.9125 C   0  0  0  1  0  0  0  0  0  0  0  0
   -3.0168   -1.7469   -1.6700 C   0  0  0  1  0  0  0  0  0  0  0  0
   -4.4303    0.1507   -2.0463 O   0  0  0  1  0  0  0  0  0  0  0  0
   -2.1111    0.6181    1.2021 H   0  0  0  1  0  0  0  0  0  0  0  0
   -2.1080    1.2538    3.4936 H   0  0  0  1  0  0  0  0  0  0  0  0
   -3.7534    0.7769    3.1505 H   0  0  0  1  0  0  0  0  0  0  0  0
   -3.3120    2.4678    3.1342 H   0  0  0  1  0  0  0  0  0  0  0  0
   -2.0217   -1.8957   -1.3059 H   0  0  0  1  0  0  0  0  0  0  0  0
   -3.0814   -2.0906   -2.6812 H   0  0  0  1  0  0  0  0  0  0  0  0
   -3.7048   -2.2958   -1.0615 H   0  0  0  1  0  0  0  0  0  0  0  0
    2.0541    0.1012   -5.4212 Cl  0  0  0  1  0  0  0  0  0  0  0  0
    1.0562    0.8598   -4.2289 C   0  0  0  1  0  0  0  0  0  0  0  0
    1.5615    1.1165   -2.9638 C   0  0  0  1  0  0  0  0  0  0  0  0
    0.7625    1.7177   -2.0097 C   0  0  0  1  0  0  0  0  0  0  0  0
   -0.5423    2.0689   -2.3193 C   0  0  0  1  0  0  0  0  0  0  0  0
   -1.0458    1.8128   -3.5807 C   0  0  0  1  0  0  0  0  0  0  0  0
   -0.2446    1.2098   -4.5378 C   0  0  0  1  0  0  0  0  0  0  0  0
   -1.4141    2.7312   -1.2788 C   0  0  0  1  0  0  0  0  0  0  0  0
    2.5417    0.8568   -2.7327 H   0  0  0  1  0  0  0  0  0  0  0  0
    1.1403    1.9067   -1.0593 H   0  0  0  1  0  0  0  0  0  0  0  0
   -2.0260    2.0725   -3.8119 H   0  0  0  1  0  0  0  0  0  0  0  0
   -0.6223    1.0208   -5.4881 H   0  0  0  1  0  0  0  0  0  0  0  0
   -0.8192    2.8933   -0.4043 H   0  0  0  1  0  0  0  0  0  0  0  0
   -1.7376    3.6730   -1.6703 H   0  0  0  1  0  0  0  0  0  0  0  0
  1  4  1  0  0  0  0
  2  4  1  0  0  0  0
  2  5  2  0  0  0  0
  2  6  1  0  0  0  0
  3  4  1  0  0  0  0
  3  7  1  0  0  0  0
  3  8  1  0  0  0  0
  4 26  1  0  0  0  0
  6  9  1  0  0  0  0
  6 12  1  0  0  0  0
  8 10  1  0  0  0  0
  8 11  2  0  0  0  0
  9 13  1  0  0  0  0
  9 14  1  0  0  0  0
  9 15  1  0  0  0  0
 10 16  1  0  0  0  0
 10 17  1  0  0  0  0
 10 18  1  0  0  0  0
 19 20  1  0  0  0  0
 20 21  4  0  0  0  0
 20 25  4  0  0  0  0
 21 22  4  0  0  0  0
 21 27  1  0  0  0  0
 22 23  4  0  0  0  0
 22 28  1  0  0  0  0
 23 24  4  0  0  0  0
 23 26  1  0  0  0  0
 24 25  4  0  0  0  0
 24 29  1  0  0  0  0
 25 30  1  0  0  0  0
 26 31  1  0  0  0  0
 26 32  1  0  0  0  0
M  END
> <BCLConfClusterSize>
1

> <ConfClashScore>
0 

> <ConfOneFourInteractionScore>
-0.928132 

> <ConfScore>
0.555607 

> <ConfScorePBest>
1 

> <RosettaParamsInstructions>
M  ROOT 3
M  POLY_N_BB 3
M  POLY_CA_BB 4
M  POLY_C_BB 2
M  POLY_O_BB 5
M  POLY_IGNORE 9 10 11 12 13 14 15 16 17 18 
M  POLY_UPPER 6
M  POLY_LOWER 8
M  POLY_CHG 0
M  POLY_PROPERTIES ALPHA_AA D_AA PROTEIN AROMATIC POLYMER 
M  END

$$$$
