


 34 34  0  0  0  0  0  0  0  0999 V2000
   -2.5719    1.7024   -0.1605 H   0  0  0  1  0  0  0  0  0  0  0  0
   -1.4795    0.2329    0.8905 C   0  0  0  1  0  0  0  0  0  0  0  0
   -3.4760    1.3921    1.6723 N   0  0  0  1  0  0  0  0  0  0  0  0
   -2.2803    1.5211    0.8529 C   0  0  0  1  0  0  0  0  0  0  0  0
   -0.5117    0.1044    1.6392 O   0  0  0  1  0  0  0  0  0  0  0  0
   -1.8970   -0.7377    0.0624 N   0  0  0  1  0  0  0  0  0  0  0  0
   -3.3990    1.3664    2.6490 H   0  0  0  1  0  0  0  0  0  0  0  0
   -4.6903    1.3077    1.0904 C   0  0  0  1  0  0  0  0  0  0  0  0
   -1.2145   -2.0189   -0.0402 C   0  0  0  1  0  0  0  0  0  0  0  0
   -5.9099    1.3339    1.9835 C   0  0  0  1  0  0  0  0  0  0  0  0
   -4.8044    1.2122   -0.1309 O   0  0  0  1  0  0  0  0  0  0  0  0
   -2.6889   -0.5779   -0.4924 H   0  0  0  1  0  0  0  0  0  0  0  0
   -0.8280   -2.2955    0.9185 H   0  0  0  1  0  0  0  0  0  0  0  0
   -0.4087   -1.9386   -0.7396 H   0  0  0  1  0  0  0  0  0  0  0  0
   -1.9049   -2.7647   -0.3748 H   0  0  0  1  0  0  0  0  0  0  0  0
   -5.9322    2.2531    2.5307 H   0  0  0  1  0  0  0  0  0  0  0  0
   -5.8682    0.5125    2.6680 H   0  0  0  1  0  0  0  0  0  0  0  0
   -6.7926    1.2546    1.3838 H   0  0  0  1  0  0  0  0  0  0  0  0
   -1.4276    2.6950    1.3162 C   0  0  0  1  0  0  0  0  0  0  0  0
   -2.1550    3.9968    1.1109 C   0  0  0  1  0  0  0  0  0  0  0  0
   -2.9207    4.5294    2.1309 C   0  0  0  1  0  0  0  0  0  0  0  0
   -3.5859    5.7310    1.9430 C   0  0  0  1  0  0  0  0  0  0  0  0
   -3.4878    6.3937    0.7341 C   0  0  0  1  0  0  0  0  0  0  0  0
   -2.7198    5.8593   -0.2887 C   0  0  0  1  0  0  0  0  0  0  0  0
   -2.0565    4.6613   -0.1016 C   0  0  0  1  0  0  0  0  0  0  0  0
   -4.2524    7.5750    0.5098 N   0  0  0  1  0  0  0  0  0  0  0  0
   -0.5166    2.7098    0.7551 H   0  0  0  1  0  0  0  0  0  0  0  0
   -1.2047    2.5778    2.3561 H   0  0  0  1  0  0  0  0  0  0  0  0
   -2.9977    4.0288    3.0392 H   0  0  0  1  0  0  0  0  0  0  0  0
   -4.1588    6.1339    2.7118 H   0  0  0  1  0  0  0  0  0  0  0  0
   -2.6427    6.3599   -1.1971 H   0  0  0  1  0  0  0  0  0  0  0  0
   -1.4836    4.2584   -0.8704 H   0  0  0  1  0  0  0  0  0  0  0  0
   -4.8492    7.9127    1.2100 H   0  0  0  1  0  0  0  0  0  0  0  0
   -4.1815    8.0497   -0.3446 H   0  0  0  1  0  0  0  0  0  0  0  0
  1  4  1  0  0  0  0
  2  4  1  0  0  0  0
  2  5  2  0  0  0  0
  2  6  1  0  0  0  0
  3  4  1  0  0  0  0
  3  7  1  0  0  0  0
  3  8  1  0  0  0  0
  4 19  1  0  0  0  0
  6  9  1  0  0  0  0
  6 12  1  0  0  0  0
  8 10  1  0  0  0  0
  8 11  2  0  0  0  0
  9 13  1  0  0  0  0
  9 14  1  0  0  0  0
  9 15  1  0  0  0  0
 10 16  1  0  0  0  0
 10 17  1  0  0  0  0
 10 18  1  0  0  0  0
 19 20  1  0  0  0  0
 19 27  1  0  0  0  0
 19 28  1  0  0  0  0
 20 21  4  0  0  0  0
 20 25  4  0  0  0  0
 21 22  4  0  0  0  0
 21 29  1  0  0  0  0
 22 23  4  0  0  0  0
 22 30  1  0  0  0  0
 23 24  4  0  0  0  0
 23 26  1  0  0  0  0
 24 25  4  0  0  0  0
 24 31  1  0  0  0  0
 25 32  1  0  0  0  0
 26 33  1  0  0  0  0
 26 34  1  0  0  0  0
M  END
> <BCLConfClusterSize>
1

> <ConfClashScore>
0 

> <ConfOneFourInteractionScore>
-0.979134 

> <ConfScore>
-0.0895994 

> <ConfScorePBest>
1 

> <RosettaParamsInstructions>
M  ROOT 3
M  POLY_N_BB 3
M  POLY_CA_BB 4
M  POLY_C_BB 2
M  POLY_O_BB 5
M  POLY_IGNORE 9 10 11 12 13 14 15 16 17 18 
M  POLY_UPPER 6
M  POLY_LOWER 8
M  POLY_CHG 0
M  POLY_PROPERTIES ALPHA_AA L_AA PROTEIN AROMATIC POLYMER 
M  END

$$$$
