


 34 34  0  0  0  0  0  0  0  0999 V2000
   -0.9838    2.0256    0.6669 H   0  0  0  1  0  0  0  0  0  0  0  0
   -1.5241    0.3317   -0.4479 C   0  0  0  1  0  0  0  0  0  0  0  0
   -3.0356    2.0353    0.4053 N   0  0  0  1  0  0  0  0  0  0  0  0
   -1.6807    1.7976   -0.1124 C   0  0  0  1  0  0  0  0  0  0  0  0
   -0.8582   -0.0259   -1.4186 O   0  0  0  1  0  0  0  0  0  0  0  0
   -2.1355   -0.5700    0.3481 N   0  0  0  1  0  0  0  0  0  0  0  0
   -3.1404    2.3648    1.3223 H   0  0  0  1  0  0  0  0  0  0  0  0
   -4.1292    1.8177   -0.3307 C   0  0  0  1  0  0  0  0  0  0  0  0
   -1.8132   -1.9844    0.2320 C   0  0  0  1  0  0  0  0  0  0  0  0
   -5.4503    2.1326    0.3436 C   0  0  0  1  0  0  0  0  0  0  0  0
   -4.0871    1.3932   -1.4737 O   0  0  0  1  0  0  0  0  0  0  0  0
   -2.7981   -0.2718    1.0057 H   0  0  0  1  0  0  0  0  0  0  0  0
   -0.7908   -2.0946   -0.0636 H   0  0  0  1  0  0  0  0  0  0  0  0
   -2.4473   -2.4353   -0.5025 H   0  0  0  1  0  0  0  0  0  0  0  0
   -1.9646   -2.4631    1.1769 H   0  0  0  1  0  0  0  0  0  0  0  0
   -6.2488    1.6798   -0.2062 H   0  0  0  1  0  0  0  0  0  0  0  0
   -5.5927    3.1928    0.3710 H   0  0  0  1  0  0  0  0  0  0  0  0
   -5.4417    1.7475    1.3418 H   0  0  0  1  0  0  0  0  0  0  0  0
   -2.6863    8.1876   -0.1300 N   0  3  0  1  0  0  0  0  0  0  0  0
   -1.8855    8.8750    0.4198 O   0  0  0  1  0  0  0  0  0  0  0  0
   -3.8985    8.6206   -0.5026 O   0  5  0  1  0  0  0  0  0  0  0  0
   -2.3334    6.8196   -0.4089 C   0  0  0  1  0  0  0  0  0  0  0  0
   -1.0865    6.3039   -0.1095 C   0  0  0  1  0  0  0  0  0  0  0  0
   -0.7982    4.9781   -0.3934 C   0  0  0  1  0  0  0  0  0  0  0  0
   -1.7560    4.1733   -0.9808 C   0  0  0  1  0  0  0  0  0  0  0  0
   -3.0066    4.6902   -1.2811 C   0  0  0  1  0  0  0  0  0  0  0  0
   -3.2939    6.0122   -0.9981 C   0  0  0  1  0  0  0  0  0  0  0  0
   -1.3875    2.7381   -1.2740 C   0  0  0  1  0  0  0  0  0  0  0  0
   -0.3645    6.9107    0.3288 H   0  0  0  1  0  0  0  0  0  0  0  0
    0.1387    4.5891   -0.1644 H   0  0  0  1  0  0  0  0  0  0  0  0
   -3.7286    4.0835   -1.7195 H   0  0  0  1  0  0  0  0  0  0  0  0
   -4.2308    6.4012   -1.2271 H   0  0  0  1  0  0  0  0  0  0  0  0
   -1.9452    2.4107   -2.1265 H   0  0  0  1  0  0  0  0  0  0  0  0
   -0.3411    2.6931   -1.4929 H   0  0  0  1  0  0  0  0  0  0  0  0
  1  4  1  0  0  0  0
  2  4  1  0  0  0  0
  2  5  2  0  0  0  0
  2  6  1  0  0  0  0
  3  4  1  0  0  0  0
  3  7  1  0  0  0  0
  3  8  1  0  0  0  0
  4 28  1  0  0  0  0
  6  9  1  0  0  0  0
  6 12  1  0  0  0  0
  8 10  1  0  0  0  0
  8 11  2  0  0  0  0
  9 13  1  0  0  0  0
  9 14  1  0  0  0  0
  9 15  1  0  0  0  0
 10 16  1  0  0  0  0
 10 17  1  0  0  0  0
 10 18  1  0  0  0  0
 19 20  2  0  0  0  0
 19 21  1  0  0  0  0
 19 22  1  0  0  0  0
 22 23  4  0  0  0  0
 22 27  4  0  0  0  0
 23 24  4  0  0  0  0
 23 29  1  0  0  0  0
 24 25  4  0  0  0  0
 24 30  1  0  0  0  0
 25 26  4  0  0  0  0
 25 28  1  0  0  0  0
 26 27  4  0  0  0  0
 26 31  1  0  0  0  0
 27 32  1  0  0  0  0
 28 33  1  0  0  0  0
 28 34  1  0  0  0  0
M  END
> <BCLConfClusterSize>
1

> <ConfClashScore>
0 

> <ConfOneFourInteractionScore>
-0.938696 

> <ConfScore>
0.268679 

> <ConfScorePBest>
1 

> <RosettaParamsInstructions>
M  ROOT 3
M  POLY_N_BB 3
M  POLY_CA_BB 4
M  POLY_C_BB 2
M  POLY_O_BB 5
M  POLY_IGNORE 9 10 11 12 13 14 15 16 17 18 
M  POLY_UPPER 6
M  POLY_LOWER 8
M  POLY_CHG 0
M  POLY_PROPERTIES ALPHA_AA D_AA PROTEIN AROMATIC POLYMER 
M  END

$$$$
