


 32 32  0  0  0  0  0  0  0  0999 V2000
   -0.6320    1.4491   -2.7293 H   0  0  0  1  0  0  0  0  0  0  0  0
    0.8681    2.8955   -2.5568 C   0  0  0  1  0  0  0  0  0  0  0  0
   -1.2913    3.1264   -3.7139 N   0  0  0  1  0  0  0  0  0  0  0  0
   -0.6075    2.5060   -2.5640 C   0  0  0  1  0  0  0  0  0  0  0  0
    1.6467    2.1906   -1.9162 O   0  0  0  1  0  0  0  0  0  0  0  0
    1.2394    3.9839   -3.2479 N   0  0  0  1  0  0  0  0  0  0  0  0
   -2.1304    3.6144   -3.5788 H   0  0  0  1  0  0  0  0  0  0  0  0
   -0.7642    3.0237   -4.9516 C   0  0  0  1  0  0  0  0  0  0  0  0
    2.6068    4.4714   -3.1630 C   0  0  0  1  0  0  0  0  0  0  0  0
   -1.5634    3.6740   -6.0641 C   0  0  0  1  0  0  0  0  0  0  0  0
    0.2958    2.4434   -5.1822 O   0  0  0  1  0  0  0  0  0  0  0  0
    0.5877    4.4514   -3.8111 H   0  0  0  1  0  0  0  0  0  0  0  0
    2.6158    5.5338   -3.2901 H   0  0  0  1  0  0  0  0  0  0  0  0
    3.1960    4.0155   -3.9311 H   0  0  0  1  0  0  0  0  0  0  0  0
    3.0147    4.2235   -2.2054 H   0  0  0  1  0  0  0  0  0  0  0  0
   -1.9215    2.9205   -6.7341 H   0  0  0  1  0  0  0  0  0  0  0  0
   -0.9386    4.3586   -6.5986 H   0  0  0  1  0  0  0  0  0  0  0  0
   -2.3943    4.2018   -5.6444 H   0  0  0  1  0  0  0  0  0  0  0  0
   -2.8193    8.8026   -0.0103 I   0  0  0  1  0  0  0  0  0  0  0  0
   -2.3651    6.8060   -0.4291 C   0  0  0  1  0  0  0  0  0  0  0  0
   -1.1144    6.2983   -0.1138 C   0  0  0  1  0  0  0  0  0  0  0  0
   -0.8129    4.9794   -0.3959 C   0  0  0  1  0  0  0  0  0  0  0  0
   -1.7629    4.1627   -0.9892 C   0  0  0  1  0  0  0  0  0  0  0  0
   -3.0100    4.6690   -1.3036 C   0  0  0  1  0  0  0  0  0  0  0  0
   -3.3125    5.9919   -1.0207 C   0  0  0  1  0  0  0  0  0  0  0  0
   -1.3315    2.7385   -1.2480 C   0  0  0  1  0  0  0  0  0  0  0  0
   -0.4029    6.9099    0.3350 H   0  0  0  1  0  0  0  0  0  0  0  0
    0.1268    4.5995   -0.1630 H   0  0  0  1  0  0  0  0  0  0  0  0
   -3.7214    4.0574   -1.7524 H   0  0  0  1  0  0  0  0  0  0  0  0
   -4.2522    6.3718   -1.2536 H   0  0  0  1  0  0  0  0  0  0  0  0
   -0.6774    2.4424   -0.4546 H   0  0  0  1  0  0  0  0  0  0  0  0
   -2.2059    2.1219   -1.2389 H   0  0  0  1  0  0  0  0  0  0  0  0
  1  4  1  0  0  0  0
  2  4  1  0  0  0  0
  2  5  2  0  0  0  0
  2  6  1  0  0  0  0
  3  4  1  0  0  0  0
  3  7  1  0  0  0  0
  3  8  1  0  0  0  0
  4 26  1  0  0  0  0
  6  9  1  0  0  0  0
  6 12  1  0  0  0  0
  8 10  1  0  0  0  0
  8 11  2  0  0  0  0
  9 13  1  0  0  0  0
  9 14  1  0  0  0  0
  9 15  1  0  0  0  0
 10 16  1  0  0  0  0
 10 17  1  0  0  0  0
 10 18  1  0  0  0  0
 19 20  1  0  0  0  0
 20 21  4  0  0  0  0
 20 25  4  0  0  0  0
 21 22  4  0  0  0  0
 21 27  1  0  0  0  0
 22 23  4  0  0  0  0
 22 28  1  0  0  0  0
 23 24  4  0  0  0  0
 23 26  1  0  0  0  0
 24 25  4  0  0  0  0
 24 29  1  0  0  0  0
 25 30  1  0  0  0  0
 26 31  1  0  0  0  0
 26 32  1  0  0  0  0
M  END
> <BCLConfClusterSize>
1

> <ConfClashScore>
0 

> <ConfOneFourInteractionScore>
-0.931937 

> <ConfScore>
0.197346 

> <ConfScorePBest>
1 

> <RosettaParamsInstructions>
M  ROOT 3
M  POLY_N_BB 3
M  POLY_CA_BB 4
M  POLY_C_BB 2
M  POLY_O_BB 5
M  POLY_IGNORE 9 10 11 12 13 14 15 16 17 18 
M  POLY_UPPER 6
M  POLY_LOWER 8
M  POLY_CHG 0
M  POLY_PROPERTIES ALPHA_AA D_AA PROTEIN AROMATIC POLYMER 
M  END

$$$$
