


 32 32  0  0  0  0  0  0  0  0999 V2000
   -0.7874    0.7845   -0.7508 H   0  0  0  1  0  0  0  0  0  0  0  0
    0.9401    1.8404   -1.2998 C   0  0  0  1  0  0  0  0  0  0  0  0
   -0.7797    0.9241   -2.8034 N   0  0  0  1  0  0  0  0  0  0  0  0
   -0.5214    1.5061   -1.4948 C   0  0  0  1  0  0  0  0  0  0  0  0
    1.6234    2.2794   -2.2240 O   0  0  0  1  0  0  0  0  0  0  0  0
    1.4247    1.6285   -0.0753 N   0  0  0  1  0  0  0  0  0  0  0  0
   -1.5025    1.2948   -3.3516 H   0  0  0  1  0  0  0  0  0  0  0  0
   -0.0387   -0.1368   -3.3015 C   0  0  0  1  0  0  0  0  0  0  0  0
    2.7739    1.9623    0.3561 C   0  0  0  1  0  0  0  0  0  0  0  0
   -0.3728   -0.6871   -4.6595 C   0  0  0  1  0  0  0  0  0  0  0  0
    0.8621   -0.5891   -2.6187 O   0  0  0  1  0  0  0  0  0  0  0  0
    0.8272    1.2170    0.5835 H   0  0  0  1  0  0  0  0  0  0  0  0
    3.4019    1.1009    0.2637 H   0  0  0  1  0  0  0  0  0  0  0  0
    2.7531    2.2802    1.3776 H   0  0  0  1  0  0  0  0  0  0  0  0
    3.1588    2.7512   -0.2557 H   0  0  0  1  0  0  0  0  0  0  0  0
   -0.0008   -1.6870   -4.7411 H   0  0  0  1  0  0  0  0  0  0  0  0
    0.0791   -0.0761   -5.4128 H   0  0  0  1  0  0  0  0  0  0  0  0
   -1.4346   -0.6900   -4.7916 H   0  0  0  1  0  0  0  0  0  0  0  0
   -6.5450    2.1585   -3.4937 F   0  0  0  1  0  0  0  0  0  0  0  0
   -5.3149    2.2962   -2.9627 C   0  0  0  1  0  0  0  0  0  0  0  0
   -4.2964    2.8647   -3.7117 C   0  0  0  1  0  0  0  0  0  0  0  0
   -3.0329    3.0011   -3.1686 C   0  0  0  1  0  0  0  0  0  0  0  0
   -2.7853    2.5743   -1.8732 C   0  0  0  1  0  0  0  0  0  0  0  0
   -3.8009    2.0075   -1.1265 C   0  0  0  1  0  0  0  0  0  0  0  0
   -5.0683    1.8706   -1.6711 C   0  0  0  1  0  0  0  0  0  0  0  0
   -1.4060    2.7284   -1.2772 C   0  0  0  1  0  0  0  0  0  0  0  0
   -4.4831    3.1886   -4.6822 H   0  0  0  1  0  0  0  0  0  0  0  0
   -2.2677    3.4239   -3.7320 H   0  0  0  1  0  0  0  0  0  0  0  0
   -3.6142    1.6836   -0.1561 H   0  0  0  1  0  0  0  0  0  0  0  0
   -5.8335    1.4478   -1.1078 H   0  0  0  1  0  0  0  0  0  0  0  0
   -0.9329    3.5757   -1.7279 H   0  0  0  1  0  0  0  0  0  0  0  0
   -1.5063    2.8932   -0.2247 H   0  0  0  1  0  0  0  0  0  0  0  0
  1  4  1  0  0  0  0
  2  4  1  0  0  0  0
  2  5  2  0  0  0  0
  2  6  1  0  0  0  0
  3  4  1  0  0  0  0
  3  7  1  0  0  0  0
  3  8  1  0  0  0  0
  4 26  1  0  0  0  0
  6  9  1  0  0  0  0
  6 12  1  0  0  0  0
  8 10  1  0  0  0  0
  8 11  2  0  0  0  0
  9 13  1  0  0  0  0
  9 14  1  0  0  0  0
  9 15  1  0  0  0  0
 10 16  1  0  0  0  0
 10 17  1  0  0  0  0
 10 18  1  0  0  0  0
 19 20  1  0  0  0  0
 20 21  4  0  0  0  0
 20 25  4  0  0  0  0
 21 22  4  0  0  0  0
 21 27  1  0  0  0  0
 22 23  4  0  0  0  0
 22 28  1  0  0  0  0
 23 24  4  0  0  0  0
 23 26  1  0  0  0  0
 24 25  4  0  0  0  0
 24 29  1  0  0  0  0
 25 30  1  0  0  0  0
 26 31  1  0  0  0  0
 26 32  1  0  0  0  0
M  END
> <BCLConfClusterSize>
1

> <ConfClashScore>
0 

> <ConfOneFourInteractionScore>
-0.962556 

> <ConfScore>
0.52669 

> <ConfScorePBest>
1 

> <RosettaParamsInstructions>
M  ROOT 3
M  POLY_N_BB 3
M  POLY_CA_BB 4
M  POLY_C_BB 2
M  POLY_O_BB 5
M  POLY_IGNORE 9 10 11 12 13 14 15 16 17 18 
M  POLY_UPPER 6
M  POLY_LOWER 8
M  POLY_CHG 0
M  POLY_PROPERTIES ALPHA_AA D_AA PROTEIN AROMATIC POLYMER 
M  END

$$$$
