


 32 32  0  0  0  0  0  0  0  0999 V2000
   -0.8552    0.6671   -1.3298 H   0  0  0  1  0  0  0  0  0  0  0  0
    0.9432    1.7728   -1.0588 C   0  0  0  1  0  0  0  0  0  0  0  0
   -0.3190    1.5076   -3.1379 N   0  0  0  1  0  0  0  0  0  0  0  0
   -0.4459    1.5868   -1.6924 C   0  0  0  1  0  0  0  0  0  0  0  0
    1.0522    2.5841   -0.1208 O   0  0  0  1  0  0  0  0  0  0  0  0
    1.9314    1.0760   -1.5323 N   0  0  0  1  0  0  0  0  0  0  0  0
   -0.6388    2.2569   -3.6825 H   0  0  0  1  0  0  0  0  0  0  0  0
    0.2207    0.4442   -3.7528 C   0  0  0  1  0  0  0  0  0  0  0  0
    3.3326    1.4586   -1.3214 C   0  0  0  1  0  0  0  0  0  0  0  0
    0.3196    0.5365   -5.2631 C   0  0  0  1  0  0  0  0  0  0  0  0
    0.6156   -0.5508   -3.1469 O   0  0  0  1  0  0  0  0  0  0  0  0
    1.7347    0.2665   -2.0485 H   0  0  0  1  0  0  0  0  0  0  0  0
    3.9138    0.5849   -1.1120 H   0  0  0  1  0  0  0  0  0  0  0  0
    3.3967    2.1357   -0.4953 H   0  0  0  1  0  0  0  0  0  0  0  0
    3.7088    1.9341   -2.2030 H   0  0  0  1  0  0  0  0  0  0  0  0
   -0.4704    1.1546   -5.6356 H   0  0  0  1  0  0  0  0  0  0  0  0
    0.2359   -0.4426   -5.6863 H   0  0  0  1  0  0  0  0  0  0  0  0
    1.2632    0.9628   -5.5331 H   0  0  0  1  0  0  0  0  0  0  0  0
   -6.0560    1.3124   -0.9444 F   0  0  0  1  0  0  0  0  0  0  0  0
   -5.0670    1.8672   -1.6711 C   0  0  0  1  0  0  0  0  0  0  0  0
   -5.3154    2.2971   -2.9654 C   0  0  0  1  0  0  0  0  0  0  0  0
   -4.2990    2.8616   -3.7129 C   0  0  0  1  0  0  0  0  0  0  0  0
   -3.0329    3.0027   -3.1666 C   0  0  0  1  0  0  0  0  0  0  0  0
   -2.7855    2.5741   -1.8762 C   0  0  0  1  0  0  0  0  0  0  0  0
   -3.8046    2.0080   -1.1263 C   0  0  0  1  0  0  0  0  0  0  0  0
   -1.4046    2.7223   -1.2823 C   0  0  0  1  0  0  0  0  0  0  0  0
   -4.5389    3.2745   -4.9722 F   0  0  0  1  0  0  0  0  0  0  0  0
   -6.2663    2.1949   -3.3739 H   0  0  0  1  0  0  0  0  0  0  0  0
   -2.2692    3.4312   -3.7277 H   0  0  0  1  0  0  0  0  0  0  0  0
   -3.6193    1.6891   -0.1539 H   0  0  0  1  0  0  0  0  0  0  0  0
   -0.9907    3.6527   -1.6107 H   0  0  0  1  0  0  0  0  0  0  0  0
   -1.4912    2.7264   -0.2158 H   0  0  0  1  0  0  0  0  0  0  0  0
  1  4  1  0  0  0  0
  2  4  1  0  0  0  0
  2  5  2  0  0  0  0
  2  6  1  0  0  0  0
  3  4  1  0  0  0  0
  3  7  1  0  0  0  0
  3  8  1  0  0  0  0
  4 26  1  0  0  0  0
  6  9  1  0  0  0  0
  6 12  1  0  0  0  0
  8 10  1  0  0  0  0
  8 11  2  0  0  0  0
  9 13  1  0  0  0  0
  9 14  1  0  0  0  0
  9 15  1  0  0  0  0
 10 16  1  0  0  0  0
 10 17  1  0  0  0  0
 10 18  1  0  0  0  0
 19 20  1  0  0  0  0
 20 21  4  0  0  0  0
 20 25  4  0  0  0  0
 21 22  4  0  0  0  0
 21 28  1  0  0  0  0
 22 23  4  0  0  0  0
 22 27  1  0  0  0  0
 23 24  4  0  0  0  0
 23 29  1  0  0  0  0
 24 25  4  0  0  0  0
 24 26  1  0  0  0  0
 25 30  1  0  0  0  0
 26 31  1  0  0  0  0
 26 32  1  0  0  0  0
M  END
> <BCLConfClusterSize>
1

> <ConfClashScore>
0.00724058 

> <ConfOneFourInteractionScore>
-0.95996 

> <ConfScore>
1.82623 

> <ConfScorePBest>
1 

> <RosettaParamsInstructions>
M  ROOT 3
M  POLY_N_BB 3
M  POLY_CA_BB 4
M  POLY_C_BB 2
M  POLY_O_BB 5
M  POLY_IGNORE 9 10 11 12 13 14 15 16 17 18 
M  POLY_UPPER 6
M  POLY_LOWER 8
M  POLY_CHG 0
M  POLY_PROPERTIES ALPHA_AA D_AA PROTEIN AROMATIC POLYMER 
M  END

$$$$
