


 32 32  0  0  0  0  0  0  0  0999 V2000
   -1.0864    0.8953    0.3286 H   0  0  0  1  0  0  0  0  0  0  0  0
   -3.1170    1.4761    0.0106 C   0  0  0  1  0  0  0  0  0  0  0  0
   -1.0597    2.4277   -1.0206 N   0  0  0  1  0  0  0  0  0  0  0  0
   -1.6046    1.8125    0.1412 C   0  0  0  1  0  0  0  0  0  0  0  0
   -3.7920    1.1455    1.0156 O   0  0  0  1  0  0  0  0  0  0  0  0
   -3.6946    1.5524   -1.2453 N   0  0  0  1  0  0  0  0  0  0  0  0
   -0.8799    3.3909   -1.0055 H   0  0  0  1  0  0  0  0  0  0  0  0
   -0.7851    1.7388   -2.1294 C   0  0  0  1  0  0  0  0  0  0  0  0
   -4.9369    0.9004   -1.6319 C   0  0  0  1  0  0  0  0  0  0  0  0
   -0.1167    2.5217   -3.2427 C   0  0  0  1  0  0  0  0  0  0  0  0
   -1.0498    0.5443   -2.2587 O   0  0  0  1  0  0  0  0  0  0  0  0
   -3.2321    2.0855   -1.9252 H   0  0  0  1  0  0  0  0  0  0  0  0
   -4.9657    0.7888   -2.6957 H   0  0  0  1  0  0  0  0  0  0  0  0
   -5.7664    1.4967   -1.3136 H   0  0  0  1  0  0  0  0  0  0  0  0
   -4.9921   -0.0635   -1.1708 H   0  0  0  1  0  0  0  0  0  0  0  0
   -0.8646    2.9689   -3.8637 H   0  0  0  1  0  0  0  0  0  0  0  0
    0.4864    1.8615   -3.8303 H   0  0  0  1  0  0  0  0  0  0  0  0
    0.4997    3.2872   -2.8197 H   0  0  0  1  0  0  0  0  0  0  0  0
   -4.1393    3.2984    1.5955 F   0  0  0  1  0  0  0  0  0  0  0  0
   -3.3304    4.3096    1.2252 C   0  0  0  1  0  0  0  0  0  0  0  0
   -1.9736    4.0909    1.0783 C   0  0  0  1  0  0  0  0  0  0  0  0
   -1.1417    5.1303    0.6920 C   0  0  0  1  0  0  0  0  0  0  0  0
   -1.6685    6.3867    0.4589 C   0  0  0  1  0  0  0  0  0  0  0  0
   -3.0292    6.6061    0.6062 C   0  0  0  1  0  0  0  0  0  0  0  0
   -3.8584    5.5697    0.9914 C   0  0  0  1  0  0  0  0  0  0  0  0
   -1.3965    2.7195    1.3386 C   0  0  0  1  0  0  0  0  0  0  0  0
   -0.1213    4.9647    0.5776 H   0  0  0  1  0  0  0  0  0  0  0  0
   -1.0438    7.1675    0.1730 H   0  0  0  1  0  0  0  0  0  0  0  0
   -3.4261    7.5506    0.4269 H   0  0  0  1  0  0  0  0  0  0  0  0
   -4.8788    5.7353    1.1058 H   0  0  0  1  0  0  0  0  0  0  0  0
   -0.3480    2.8109    1.5315 H   0  0  0  1  0  0  0  0  0  0  0  0
   -1.8806    2.2913    2.1914 H   0  0  0  1  0  0  0  0  0  0  0  0
  1  4  1  0  0  0  0
  2  4  1  0  0  0  0
  2  5  2  0  0  0  0
  2  6  1  0  0  0  0
  3  4  1  0  0  0  0
  3  7  1  0  0  0  0
  3  8  1  0  0  0  0
  4 26  1  0  0  0  0
  6  9  1  0  0  0  0
  6 12  1  0  0  0  0
  8 10  1  0  0  0  0
  8 11  2  0  0  0  0
  9 13  1  0  0  0  0
  9 14  1  0  0  0  0
  9 15  1  0  0  0  0
 10 16  1  0  0  0  0
 10 17  1  0  0  0  0
 10 18  1  0  0  0  0
 19 20  1  0  0  0  0
 20 21  4  0  0  0  0
 20 25  4  0  0  0  0
 21 22  4  0  0  0  0
 21 26  1  0  0  0  0
 22 23  4  0  0  0  0
 22 27  1  0  0  0  0
 23 24  4  0  0  0  0
 23 28  1  0  0  0  0
 24 25  4  0  0  0  0
 24 29  1  0  0  0  0
 25 30  1  0  0  0  0
 26 31  1  0  0  0  0
 26 32  1  0  0  0  0
M  END
> <BCLConfClusterSize>
1

> <ConfClashScore>
0.000107611 

> <ConfOneFourInteractionScore>
-0.950605 

> <ConfScore>
1.17587 

> <ConfScorePBest>
1 

> <RosettaParamsInstructions>
M  ROOT 3
M  POLY_N_BB 3
M  POLY_CA_BB 4
M  POLY_C_BB 2
M  POLY_O_BB 5
M  POLY_IGNORE 9 10 11 12 13 14 15 16 17 18 
M  POLY_UPPER 6
M  POLY_LOWER 8
M  POLY_CHG 0
M  POLY_PROPERTIES ALPHA_AA L_AA PROTEIN AROMATIC POLYMER 
M  END

$$$$
