


 35 35  0  0  0  0  0  0  0  0999 V2000
   -1.6389    2.5934    3.4160 H   0  0  0  1  0  0  0  0  0  0  0  0
    0.0601    1.4297    2.9705 C   0  0  0  1  0  0  0  0  0  0  0  0
   -0.0523    3.8458    3.0240 N   0  0  0  1  0  0  0  0  0  0  0  0
   -0.8203    2.6467    2.7291 C   0  0  0  1  0  0  0  0  0  0  0  0
    1.2721    1.4672    2.7628 O   0  0  0  1  0  0  0  0  0  0  0  0
   -0.5672    0.3398    3.4155 N   0  0  0  1  0  0  0  0  0  0  0  0
    0.6945    4.0856    2.4364 H   0  0  0  1  0  0  0  0  0  0  0  0
   -0.3295    4.6320    4.0681 C   0  0  0  1  0  0  0  0  0  0  0  0
    0.1247   -0.9224    3.6297 C   0  0  0  1  0  0  0  0  0  0  0  0
    0.4835    5.9082    4.1658 C   0  0  0  1  0  0  0  0  0  0  0  0
   -1.1859    4.3547    4.9067 O   0  0  0  1  0  0  0  0  0  0  0  0
   -1.5274    0.3909    3.6047 H   0  0  0  1  0  0  0  0  0  0  0  0
   -0.3650   -1.6965    3.0767 H   0  0  0  1  0  0  0  0  0  0  0  0
    0.1096   -1.1647    4.6718 H   0  0  0  1  0  0  0  0  0  0  0  0
    1.1382   -0.8340    3.2983 H   0  0  0  1  0  0  0  0  0  0  0  0
    0.6979    6.2712    3.1823 H   0  0  0  1  0  0  0  0  0  0  0  0
    1.4004    5.7082    4.6797 H   0  0  0  1  0  0  0  0  0  0  0  0
   -0.0743    6.6457    4.7042 H   0  0  0  1  0  0  0  0  0  0  0  0
   -2.1760    8.6183    0.3216 F   0  0  0  1  0  0  0  0  0  0  0  0
   -1.6195    7.7050    1.1192 C   0  0  0  1  0  0  0  0  0  0  0  0
   -0.3341    7.6494    0.7804 F   0  0  0  1  0  0  0  0  0  0  0  0
   -1.6590    8.2082    2.3428 F   0  0  0  1  0  0  0  0  0  0  0  0
   -2.3017    6.3608    1.0239 C   0  0  0  1  0  0  0  0  0  0  0  0
   -1.5724    5.2006    1.2036 C   0  0  0  1  0  0  0  0  0  0  0  0
   -2.2000    3.9674    1.1214 C   0  0  0  1  0  0  0  0  0  0  0  0
   -3.5543    3.8979    0.8545 C   0  0  0  1  0  0  0  0  0  0  0  0
   -4.2860    5.0614    0.6742 C   0  0  0  1  0  0  0  0  0  0  0  0
   -3.6600    6.2909    0.7561 C   0  0  0  1  0  0  0  0  0  0  0  0
   -1.4046    2.6994    1.3235 C   0  0  0  1  0  0  0  0  0  0  0  0
   -0.5525    5.2528    1.4006 H   0  0  0  1  0  0  0  0  0  0  0  0
   -4.0245    2.9726    0.7888 H   0  0  0  1  0  0  0  0  0  0  0  0
   -5.3059    5.0091    0.4772 H   0  0  0  1  0  0  0  0  0  0  0  0
   -4.2081    7.1637    0.6169 H   0  0  0  1  0  0  0  0  0  0  0  0
   -2.0466    1.8557    1.1787 H   0  0  0  1  0  0  0  0  0  0  0  0
   -0.6073    2.6681    0.6107 H   0  0  0  1  0  0  0  0  0  0  0  0
  1  4  1  0  0  0  0
  2  4  1  0  0  0  0
  2  5  2  0  0  0  0
  2  6  1  0  0  0  0
  3  4  1  0  0  0  0
  3  7  1  0  0  0  0
  3  8  1  0  0  0  0
  4 29  1  0  0  0  0
  6  9  1  0  0  0  0
  6 12  1  0  0  0  0
  8 10  1  0  0  0  0
  8 11  2  0  0  0  0
  9 13  1  0  0  0  0
  9 14  1  0  0  0  0
  9 15  1  0  0  0  0
 10 16  1  0  0  0  0
 10 17  1  0  0  0  0
 10 18  1  0  0  0  0
 19 20  1  0  0  0  0
 20 21  1  0  0  0  0
 20 22  1  0  0  0  0
 20 23  1  0  0  0  0
 23 24  4  0  0  0  0
 23 28  4  0  0  0  0
 24 25  4  0  0  0  0
 24 30  1  0  0  0  0
 25 26  4  0  0  0  0
 25 29  1  0  0  0  0
 26 27  4  0  0  0  0
 26 31  1  0  0  0  0
 27 28  4  0  0  0  0
 27 32  1  0  0  0  0
 28 33  1  0  0  0  0
 29 34  1  0  0  0  0
 29 35  1  0  0  0  0
M  END
> <BCLConfClusterSize>
1

> <ConfClashScore>
0 

> <ConfOneFourInteractionScore>
-0.98382 

> <ConfScore>
0.216255 

> <ConfScorePBest>
1 

> <RosettaParamsInstructions>
M  ROOT 3
M  POLY_N_BB 3
M  POLY_CA_BB 4
M  POLY_C_BB 2
M  POLY_O_BB 5
M  POLY_IGNORE 9 10 11 12 13 14 15 16 17 18 
M  POLY_UPPER 6
M  POLY_LOWER 8
M  POLY_CHG 0
M  POLY_PROPERTIES ALPHA_AA L_AA PROTEIN AROMATIC POLYMER 
M  END

$$$$
