


 32 32  0  0  0  0  0  0  0  0999 V2000
    0.3508    1.6553    0.8038 H   0  0  0  1  0  0  0  0  0  0  0  0
   -0.3748    2.5436   -0.9555 C   0  0  0  1  0  0  0  0  0  0  0  0
    0.8853    3.6342    0.8538 N   0  0  0  1  0  0  0  0  0  0  0  0
   -0.0854    2.5961    0.5405 C   0  0  0  1  0  0  0  0  0  0  0  0
    0.2039    3.2873   -1.7431 O   0  0  0  1  0  0  0  0  0  0  0  0
   -1.2855    1.6473   -1.3384 N   0  0  0  1  0  0  0  0  0  0  0  0
    0.7577    4.2007    1.6432 H   0  0  0  1  0  0  0  0  0  0  0  0
    1.9483    3.8160    0.0688 C   0  0  0  1  0  0  0  0  0  0  0  0
   -1.7990    1.5078   -2.6929 C   0  0  0  1  0  0  0  0  0  0  0  0
    2.7304    5.0935    0.3045 C   0  0  0  1  0  0  0  0  0  0  0  0
    2.2879    3.0099   -0.7964 O   0  0  0  1  0  0  0  0  0  0  0  0
   -1.6351    1.0367   -0.6562 H   0  0  0  1  0  0  0  0  0  0  0  0
   -2.3787    2.3709   -2.9458 H   0  0  0  1  0  0  0  0  0  0  0  0
   -2.4150    0.6349   -2.7525 H   0  0  0  1  0  0  0  0  0  0  0  0
   -0.9811    1.4151   -3.3765 H   0  0  0  1  0  0  0  0  0  0  0  0
    2.1574    5.9309   -0.0353 H   0  0  0  1  0  0  0  0  0  0  0  0
    3.6536    5.0509   -0.2348 H   0  0  0  1  0  0  0  0  0  0  0  0
    2.9320    5.2003    1.3499 H   0  0  0  1  0  0  0  0  0  0  0  0
   -4.4061    8.2434    0.3902 I   0  0  0  1  0  0  0  0  0  0  0  0
   -3.4167    6.4275    0.6931 C   0  0  0  1  0  0  0  0  0  0  0  0
   -2.5630    6.2763    1.7695 C   0  0  0  1  0  0  0  0  0  0  0  0
   -1.9112    5.0698    1.9727 C   0  0  0  1  0  0  0  0  0  0  0  0
   -2.1109    4.0201    1.0963 C   0  0  0  1  0  0  0  0  0  0  0  0
   -2.9671    4.1719    0.0168 C   0  0  0  1  0  0  0  0  0  0  0  0
   -3.6171    5.3747   -0.1861 C   0  0  0  1  0  0  0  0  0  0  0  0
   -1.3715    2.7299    1.3611 C   0  0  0  1  0  0  0  0  0  0  0  0
   -2.4096    7.0674    2.4268 H   0  0  0  1  0  0  0  0  0  0  0  0
   -1.2719    4.9547    2.7849 H   0  0  0  1  0  0  0  0  0  0  0  0
   -3.1205    3.3807   -0.6405 H   0  0  0  1  0  0  0  0  0  0  0  0
   -4.2564    5.4899   -0.9983 H   0  0  0  1  0  0  0  0  0  0  0  0
   -1.1183    2.6895    2.4000 H   0  0  0  1  0  0  0  0  0  0  0  0
   -2.0168    1.9115    1.1187 H   0  0  0  1  0  0  0  0  0  0  0  0
  1  4  1  0  0  0  0
  2  4  1  0  0  0  0
  2  5  2  0  0  0  0
  2  6  1  0  0  0  0
  3  4  1  0  0  0  0
  3  7  1  0  0  0  0
  3  8  1  0  0  0  0
  4 26  1  0  0  0  0
  6  9  1  0  0  0  0
  6 12  1  0  0  0  0
  8 10  1  0  0  0  0
  8 11  2  0  0  0  0
  9 13  1  0  0  0  0
  9 14  1  0  0  0  0
  9 15  1  0  0  0  0
 10 16  1  0  0  0  0
 10 17  1  0  0  0  0
 10 18  1  0  0  0  0
 19 20  1  0  0  0  0
 20 21  4  0  0  0  0
 20 25  4  0  0  0  0
 21 22  4  0  0  0  0
 21 27  1  0  0  0  0
 22 23  4  0  0  0  0
 22 28  1  0  0  0  0
 23 24  4  0  0  0  0
 23 26  1  0  0  0  0
 24 25  4  0  0  0  0
 24 29  1  0  0  0  0
 25 30  1  0  0  0  0
 26 31  1  0  0  0  0
 26 32  1  0  0  0  0
M  END
> <BCLConfClusterSize>
1

> <ConfClashScore>
0 

> <ConfOneFourInteractionScore>
-0.976093 

> <ConfScore>
0.426631 

> <ConfScorePBest>
1 

> <RosettaParamsInstructions>
M  ROOT 3
M  POLY_N_BB 3
M  POLY_CA_BB 4
M  POLY_C_BB 2
M  POLY_O_BB 5
M  POLY_IGNORE 9 10 11 12 13 14 15 16 17 18 
M  POLY_UPPER 6
M  POLY_LOWER 8
M  POLY_CHG 0
M  POLY_PROPERTIES ALPHA_AA L_AA PROTEIN AROMATIC POLYMER 
M  END

$$$$
