


 32 32  0  0  0  0  0  0  0  0999 V2000
    0.0762    3.1035   -0.1190 H   0  0  0  1  0  0  0  0  0  0  0  0
    0.9108    3.5311    1.7678 C   0  0  0  1  0  0  0  0  0  0  0  0
    0.5780    1.2681    0.7464 N   0  0  0  1  0  0  0  0  0  0  0  0
    0.0349    2.6633    0.8554 C   0  0  0  1  0  0  0  0  0  0  0  0
    0.9585    4.7478    1.5949 O   0  0  0  1  0  0  0  0  0  0  0  0
    1.5253    2.9110    2.7808 N   0  0  0  1  0  0  0  0  0  0  0  0
    0.0196    0.5188    1.0418 H   0  0  0  1  0  0  0  0  0  0  0  0
    1.7960    1.0123    0.2608 C   0  0  0  1  0  0  0  0  0  0  0  0
    2.3254    3.6294    3.7615 C   0  0  0  1  0  0  0  0  0  0  0  0
    2.5743    2.2161   -0.2334 C   0  0  0  1  0  0  0  0  0  0  0  0
    2.2725   -0.1209    0.2098 O   0  0  0  1  0  0  0  0  0  0  0  0
    1.4337    1.9390    2.8657 H   0  0  0  1  0  0  0  0  0  0  0  0
    1.8782    3.5308    4.7285 H   0  0  0  1  0  0  0  0  0  0  0  0
    2.3720    4.6644    3.4941 H   0  0  0  1  0  0  0  0  0  0  0  0
    3.3142    3.2211    3.7828 H   0  0  0  1  0  0  0  0  0  0  0  0
    3.0237    1.9880   -1.1773 H   0  0  0  1  0  0  0  0  0  0  0  0
    3.3379    2.4620    0.4746 H   0  0  0  1  0  0  0  0  0  0  0  0
    1.9107    3.0478   -0.3463 H   0  0  0  1  0  0  0  0  0  0  0  0
   -4.4309    8.0037    0.4381 Br  0  0  0  1  0  0  0  0  0  0  0  0
   -3.4401    6.4150    0.6957 C   0  0  0  1  0  0  0  0  0  0  0  0
   -2.9409    6.1091    1.9522 C   0  0  0  1  0  0  0  0  0  0  0  0
   -2.2838    4.9114    2.1622 C   0  0  0  1  0  0  0  0  0  0  0  0
   -2.1287    4.0137    1.1174 C   0  0  0  1  0  0  0  0  0  0  0  0
   -2.6263    4.3186   -0.1355 C   0  0  0  1  0  0  0  0  0  0  0  0
   -3.2852    5.5198   -0.3459 C   0  0  0  1  0  0  0  0  0  0  0  0
   -1.4253    2.6879    1.2877 C   0  0  0  1  0  0  0  0  0  0  0  0
   -3.0609    6.7808    2.7371 H   0  0  0  1  0  0  0  0  0  0  0  0
   -1.9059    4.6837    3.1039 H   0  0  0  1  0  0  0  0  0  0  0  0
   -2.5063    3.6468   -0.9203 H   0  0  0  1  0  0  0  0  0  0  0  0
   -3.6632    5.7474   -1.2877 H   0  0  0  1  0  0  0  0  0  0  0  0
   -1.4674    2.4226    2.3234 H   0  0  0  1  0  0  0  0  0  0  0  0
   -1.9529    1.9578    0.7102 H   0  0  0  1  0  0  0  0  0  0  0  0
  1  4  1  0  0  0  0
  2  4  1  0  0  0  0
  2  5  2  0  0  0  0
  2  6  1  0  0  0  0
  3  4  1  0  0  0  0
  3  7  1  0  0  0  0
  3  8  1  0  0  0  0
  4 26  1  0  0  0  0
  6  9  1  0  0  0  0
  6 12  1  0  0  0  0
  8 10  1  0  0  0  0
  8 11  2  0  0  0  0
  9 13  1  0  0  0  0
  9 14  1  0  0  0  0
  9 15  1  0  0  0  0
 10 16  1  0  0  0  0
 10 17  1  0  0  0  0
 10 18  1  0  0  0  0
 19 20  1  0  0  0  0
 20 21  4  0  0  0  0
 20 25  4  0  0  0  0
 21 22  4  0  0  0  0
 21 27  1  0  0  0  0
 22 23  4  0  0  0  0
 22 28  1  0  0  0  0
 23 24  4  0  0  0  0
 23 26  1  0  0  0  0
 24 25  4  0  0  0  0
 24 29  1  0  0  0  0
 25 30  1  0  0  0  0
 26 31  1  0  0  0  0
 26 32  1  0  0  0  0
M  END
> <BCLConfClusterSize>
1

> <ConfClashScore>
0.000293151 

> <ConfOneFourInteractionScore>
-0.960318 

> <ConfScore>
0.559141 

> <ConfScorePBest>
1 

> <RosettaParamsInstructions>
M  ROOT 3
M  POLY_N_BB 3
M  POLY_CA_BB 4
M  POLY_C_BB 2
M  POLY_O_BB 5
M  POLY_IGNORE 9 10 11 12 13 14 15 16 17 18 
M  POLY_UPPER 6
M  POLY_LOWER 8
M  POLY_CHG 0
M  POLY_PROPERTIES ALPHA_AA L_AA PROTEIN AROMATIC POLYMER 
M  END

$$$$
