


 34 34  0  0  0  0  0  0  0  0999 V2000
    0.6298    2.4543    1.8722 H   0  0  0  1  0  0  0  0  0  0  0  0
    0.3874    4.4513    1.2246 C   0  0  0  1  0  0  0  0  0  0  0  0
   -0.3467    3.4621    3.3878 N   0  0  0  1  0  0  0  0  0  0  0  0
   -0.1092    3.2216    1.9723 C   0  0  0  1  0  0  0  0  0  0  0  0
    0.5150    5.5349    1.7649 O   0  0  0  1  0  0  0  0  0  0  0  0
    0.6969    4.3426   -0.0764 N   0  0  0  1  0  0  0  0  0  0  0  0
   -1.1703    3.1007    3.7768 H   0  0  0  1  0  0  0  0  0  0  0  0
    0.4736    4.1385    4.1968 C   0  0  0  1  0  0  0  0  0  0  0  0
    1.0637    5.5249   -0.8415 C   0  0  0  1  0  0  0  0  0  0  0  0
    0.0683    4.1844    5.6573 C   0  0  0  1  0  0  0  0  0  0  0  0
    1.4882    4.6904    3.8038 O   0  0  0  1  0  0  0  0  0  0  0  0
    0.6760    3.4651   -0.5123 H   0  0  0  1  0  0  0  0  0  0  0  0
    2.1029    5.7353   -0.6977 H   0  0  0  1  0  0  0  0  0  0  0  0
    0.4818    6.3592   -0.5092 H   0  0  0  1  0  0  0  0  0  0  0  0
    0.8759    5.3497   -1.8802 H   0  0  0  1  0  0  0  0  0  0  0  0
   -0.9985    4.2209    5.7309 H   0  0  0  1  0  0  0  0  0  0  0  0
    0.4873    5.0554    6.1163 H   0  0  0  1  0  0  0  0  0  0  0  0
    0.4302    3.3091    6.1552 H   0  0  0  1  0  0  0  0  0  0  0  0
   -5.4521    6.7397    0.9870 N   0  3  0  1  0  0  0  0  0  0  0  0
   -6.1208    6.9469    1.9493 O   0  0  0  1  0  0  0  0  0  0  0  0
   -5.6005    7.3988   -0.1703 O   0  5  0  1  0  0  0  0  0  0  0  0
   -4.4309    5.7280    1.0716 C   0  0  0  1  0  0  0  0  0  0  0  0
   -3.6325    5.4578   -0.0289 C   0  0  0  1  0  0  0  0  0  0  0  0
   -2.6553    4.4835    0.0487 C   0  0  0  1  0  0  0  0  0  0  0  0
   -2.4701    3.7802    1.2288 C   0  0  0  1  0  0  0  0  0  0  0  0
   -3.2661    4.0495    2.3261 C   0  0  0  1  0  0  0  0  0  0  0  0
   -4.2461    5.0267    2.2482 C   0  0  0  1  0  0  0  0  0  0  0  0
   -1.3985    2.7193    1.3162 C   0  0  0  1  0  0  0  0  0  0  0  0
   -3.7688    5.9883   -0.9129 H   0  0  0  1  0  0  0  0  0  0  0  0
   -2.0589    4.2780   -0.7782 H   0  0  0  1  0  0  0  0  0  0  0  0
   -3.1298    3.5190    3.2102 H   0  0  0  1  0  0  0  0  0  0  0  0
   -4.8424    5.2321    3.0751 H   0  0  0  1  0  0  0  0  0  0  0  0
   -1.7765    1.9000    1.8913 H   0  0  0  1  0  0  0  0  0  0  0  0
   -1.1689    2.3848    0.3261 H   0  0  0  1  0  0  0  0  0  0  0  0
  1  4  1  0  0  0  0
  2  4  1  0  0  0  0
  2  5  2  0  0  0  0
  2  6  1  0  0  0  0
  3  4  1  0  0  0  0
  3  7  1  0  0  0  0
  3  8  1  0  0  0  0
  4 28  1  0  0  0  0
  6  9  1  0  0  0  0
  6 12  1  0  0  0  0
  8 10  1  0  0  0  0
  8 11  2  0  0  0  0
  9 13  1  0  0  0  0
  9 14  1  0  0  0  0
  9 15  1  0  0  0  0
 10 16  1  0  0  0  0
 10 17  1  0  0  0  0
 10 18  1  0  0  0  0
 19 20  2  0  0  0  0
 19 21  1  0  0  0  0
 19 22  1  0  0  0  0
 22 23  4  0  0  0  0
 22 27  4  0  0  0  0
 23 24  4  0  0  0  0
 23 29  1  0  0  0  0
 24 25  4  0  0  0  0
 24 30  1  0  0  0  0
 25 26  4  0  0  0  0
 25 28  1  0  0  0  0
 26 27  4  0  0  0  0
 26 31  1  0  0  0  0
 27 32  1  0  0  0  0
 28 33  1  0  0  0  0
 28 34  1  0  0  0  0
M  END
> <BCLConfClusterSize>
1

> <ConfClashScore>
0 

> <ConfOneFourInteractionScore>
-0.982563 

> <ConfScore>
0.344446 

> <ConfScorePBest>
1 

> <RosettaParamsInstructions>
M  ROOT 3
M  POLY_N_BB 3
M  POLY_CA_BB 4
M  POLY_C_BB 2
M  POLY_O_BB 5
M  POLY_IGNORE 9 10 11 12 13 14 15 16 17 18 
M  POLY_UPPER 6
M  POLY_LOWER 8
M  POLY_CHG 0
M  POLY_PROPERTIES ALPHA_AA L_AA PROTEIN AROMATIC POLYMER 
M  END

$$$$
