


 35 35  0  0  0  0  0  0  0  0999 V2000
   -0.6965    0.9410    0.3683 H   0  0  0  1  0  0  0  0  0  0  0  0
   -2.5740    1.4003   -0.4795 C   0  0  0  1  0  0  0  0  0  0  0  0
   -0.4668    2.5419   -0.9193 N   0  0  0  1  0  0  0  0  0  0  0  0
   -1.2330    1.8233    0.0879 C   0  0  0  1  0  0  0  0  0  0  0  0
   -2.8708    1.6254   -1.6521 O   0  0  0  1  0  0  0  0  0  0  0  0
   -3.3978    0.7742    0.3758 N   0  0  0  1  0  0  0  0  0  0  0  0
   -0.2695    3.4940   -0.7963 H   0  0  0  1  0  0  0  0  0  0  0  0
   -0.0300    1.9038   -2.0157 C   0  0  0  1  0  0  0  0  0  0  0  0
   -4.7427    0.4069   -0.0416 C   0  0  0  1  0  0  0  0  0  0  0  0
    0.6812    2.7530   -3.0697 C   0  0  0  1  0  0  0  0  0  0  0  0
   -0.1082    0.6950   -2.1607 O   0  0  0  1  0  0  0  0  0  0  0  0
   -3.0929    0.5640    1.2831 H   0  0  0  1  0  0  0  0  0  0  0  0
   -4.8824    0.6709   -1.0691 H   0  0  0  1  0  0  0  0  0  0  0  0
   -5.4575    0.9277    0.5606 H   0  0  0  1  0  0  0  0  0  0  0  0
   -4.8770   -0.6481    0.0767 H   0  0  0  1  0  0  0  0  0  0  0  0
    1.3733    3.4126   -2.5893 H   0  0  0  1  0  0  0  0  0  0  0  0
   -0.0411    3.3272   -3.6115 H   0  0  0  1  0  0  0  0  0  0  0  0
    1.2090    2.1134   -3.7459 H   0  0  0  1  0  0  0  0  0  0  0  0
   -4.6312    7.8675   -0.7156 F   0  0  0  1  0  0  0  0  0  0  0  0
   -4.4066    7.5735    0.5401 C   0  0  0  1  0  0  0  0  0  0  0  0
   -3.8325    8.6485    1.0410 F   0  0  0  1  0  0  0  0  0  0  0  0
   -5.5929    7.5562    1.1076 F   0  0  0  1  0  0  0  0  0  0  0  0
   -3.6162    6.3029    0.7457 C   0  0  0  1  0  0  0  0  0  0  0  0
   -4.2760    5.1007    0.9476 C   0  0  0  1  0  0  0  0  0  0  0  0
   -3.5522    3.9393    1.1409 C   0  0  0  1  0  0  0  0  0  0  0  0
   -2.1665    3.9757    1.1275 C   0  0  0  1  0  0  0  0  0  0  0  0
   -1.5088    5.1744    0.9262 C   0  0  0  1  0  0  0  0  0  0  0  0
   -2.2346    6.3394    0.7323 C   0  0  0  1  0  0  0  0  0  0  0  0
   -1.4249    2.6767    1.3380 C   0  0  0  1  0  0  0  0  0  0  0  0
   -5.3156    5.0726    0.9537 H   0  0  0  1  0  0  0  0  0  0  0  0
   -4.0471    3.0380    1.2965 H   0  0  0  1  0  0  0  0  0  0  0  0
   -0.4692    5.2025    0.9201 H   0  0  0  1  0  0  0  0  0  0  0  0
   -1.7397    7.2408    0.5767 H   0  0  0  1  0  0  0  0  0  0  0  0
   -0.4571    2.9091    1.7308 H   0  0  0  1  0  0  0  0  0  0  0  0
   -1.9708    2.0971    2.0528 H   0  0  0  1  0  0  0  0  0  0  0  0
  1  4  1  0  0  0  0
  2  4  1  0  0  0  0
  2  5  2  0  0  0  0
  2  6  1  0  0  0  0
  3  4  1  0  0  0  0
  3  7  1  0  0  0  0
  3  8  1  0  0  0  0
  4 29  1  0  0  0  0
  6  9  1  0  0  0  0
  6 12  1  0  0  0  0
  8 10  1  0  0  0  0
  8 11  2  0  0  0  0
  9 13  1  0  0  0  0
  9 14  1  0  0  0  0
  9 15  1  0  0  0  0
 10 16  1  0  0  0  0
 10 17  1  0  0  0  0
 10 18  1  0  0  0  0
 19 20  1  0  0  0  0
 20 21  1  0  0  0  0
 20 22  1  0  0  0  0
 20 23  1  0  0  0  0
 23 24  4  0  0  0  0
 23 28  4  0  0  0  0
 24 25  4  0  0  0  0
 24 30  1  0  0  0  0
 25 26  4  0  0  0  0
 25 31  1  0  0  0  0
 26 27  4  0  0  0  0
 26 29  1  0  0  0  0
 27 28  4  0  0  0  0
 27 32  1  0  0  0  0
 28 33  1  0  0  0  0
 29 34  1  0  0  0  0
 29 35  1  0  0  0  0
M  END
> <BCLConfClusterSize>
1

> <ConfClashScore>
0 

> <ConfOneFourInteractionScore>
-0.977982 

> <ConfScore>
0.431959 

> <ConfScorePBest>
1 

> <RosettaParamsInstructions>
M  ROOT 3
M  POLY_N_BB 3
M  POLY_CA_BB 4
M  POLY_C_BB 2
M  POLY_O_BB 5
M  POLY_IGNORE 9 10 11 12 13 14 15 16 17 18 
M  POLY_UPPER 6
M  POLY_LOWER 8
M  POLY_CHG 0
M  POLY_PROPERTIES ALPHA_AA L_AA PROTEIN AROMATIC POLYMER 
M  END

$$$$
