


 13 13  0  0  0  0  0  0  0  0999 V2000
   22.8813   16.4507    6.5309 C   0  0  0  1  0  0  0  0  0  0  0  0
   22.1790   17.6671    6.5309 C   0  0  0  1  0  0  0  0  0  0  0  0
   20.7745   17.6671    6.5309 C   0  0  0  1  0  0  0  0  0  0  0  0
   20.0723   16.4507    6.5309 C   0  0  0  1  0  0  0  0  0  0  0  0
   20.7744   15.2342    6.5309 C   0  0  0  1  0  0  0  0  0  0  0  0
   22.9752   18.8220    6.5309 N   0  0  0  1  0  0  0  0  0  0  0  0
   22.2292   15.1473    6.5309 N   0  0  0  1  0  0  0  0  0  0  0  0
   23.9208   16.4817    6.5309 H   0  0  0  1  0  0  0  0  0  0  0  0
   20.2545   18.5678    6.5309 H   0  0  0  1  0  0  0  0  0  0  0  0
   19.0323   16.4508    6.5309 H   0  0  0  1  0  0  0  0  0  0  0  0
   20.2277   14.3495    6.5309 H   0  0  0  1  0  0  0  0  0  0  0  0
   23.5205   19.0412    7.3151 H   0  0  0  1  0  0  0  0  0  0  0  0
   22.9862   19.4096    5.7467 H   0  0  0  1  0  0  0  0  0  0  0  0
  1  2  2  0  0  0  0
  1  7  1  0  0  0  0
  1  8  1  0  0  0  0
  2  3  1  0  0  0  0
  2  6  1  0  0  0  0
  3  4  2  0  0  0  0
  3  9  1  0  0  0  0
  4  5  1  0  0  0  0
  4 10  1  0  0  0  0
  5  7  2  0  0  0  0
  5 11  1  0  0  0  0
  6 12  1  0  0  0  0
  6 13  1  0  0  0  0
M  END
> <BCLConfClusterSize>
1

> <ConfClashScore>
0 

> <ConfOneFourInteractionScore>
0 

> <ConfScore>
0 

> <ConfScorePBest>
1 

> <SampleByParts>
1 5 

$$$$



 14 14  0  0  0  0  0  0  0  0999 V2000
   22.8620   16.4567    6.5319 C   0  0  0  1  0  0  0  0  0  0  0  0
   22.1686   17.6569    6.5316 C   0  0  0  1  0  0  0  0  0  0  0  0
   20.7865   17.6568    6.5332 C   0  0  0  1  0  0  0  0  0  0  0  0
   20.0938   16.4562    6.5296 C   0  0  0  1  0  0  0  0  0  0  0  0
   20.7849   15.2593    6.5299 C   0  0  0  1  0  0  0  0  0  0  0  0
   22.8764   18.8897    6.4334 N   0  0  0  1  0  0  0  0  0  0  0  0
   22.1711   15.2596    6.5283 C   0  0  0  1  0  0  0  0  0  0  0  0
   23.9020   16.4569    6.5348 H   0  0  0  1  0  0  0  0  0  0  0  0
   20.2663   18.5574    6.5371 H   0  0  0  1  0  0  0  0  0  0  0  0
   19.0538   16.4560    6.5267 H   0  0  0  1  0  0  0  0  0  0  0  0
   20.2650   14.3586    6.5313 H   0  0  0  1  0  0  0  0  0  0  0  0
   23.8476   18.8880    6.3024 H   0  0  0  1  0  0  0  0  0  0  0  0
   22.3920   19.7392    6.4968 H   0  0  0  1  0  0  0  0  0  0  0  0
   22.6913   14.3590    6.5244 H   0  0  0  1  0  0  0  0  0  0  0  0
  1  2  2  0  0  0  0
  1  7  1  0  0  0  0
  1  8  1  0  0  0  0
  2  3  1  0  0  0  0
  2  6  1  0  0  0  0
  3  4  2  0  0  0  0
  3  9  1  0  0  0  0
  4  5  1  0  0  0  0
  4 10  1  0  0  0  0
  5  7  2  0  0  0  0
  5 11  1  0  0  0  0
  6 12  1  0  0  0  0
  6 13  1  0  0  0  0
  7 14  1  0  0  0  0
M  END
> <BCLConfClusterSize>
1

> <ConfClashScore>
0 

> <ConfOneFourInteractionScore>
0 

> <ConfScore>
0 

> <ConfScorePBest>
1 

> <SampleByParts>
1 5 

$$$$



 12 12  0  0  0  0  0  0  0  0999 V2000
   22.8379   16.4715    6.5409 N   0  0  0  1  0  0  0  0  0  0  0  0
   22.1428   17.6059    6.5348 C   0  0  0  1  0  0  0  0  0  0  0  0
   20.7431   17.6401    6.5349 C   0  0  0  1  0  0  0  0  0  0  0  0
   20.0810   16.4402    6.5319 C   0  0  0  1  0  0  0  0  0  0  0  0
   20.8565   15.2755    6.5224 C   0  0  0  1  0  0  0  0  0  0  0  0
   22.7935   18.8115    6.5280 N   0  0  0  1  0  0  0  0  0  0  0  0
   22.1863   15.2882    6.5355 N   0  0  0  1  0  0  0  0  0  0  0  0
   20.2254   18.5421    6.5372 H   0  0  0  1  0  0  0  0  0  0  0  0
   19.0419   16.3969    6.5365 H   0  0  0  1  0  0  0  0  0  0  0  0
   20.3700   14.3565    6.5042 H   0  0  0  1  0  0  0  0  0  0  0  0
   22.3124   19.6265    6.2737 H   0  0  0  1  0  0  0  0  0  0  0  0
   23.7400   18.8588    6.7775 H   0  0  0  1  0  0  0  0  0  0  0  0
  1  2  2  0  0  0  0
  1  7  1  0  0  0  0
  2  3  1  0  0  0  0
  2  6  1  0  0  0  0
  3  4  2  0  0  0  0
  3  8  1  0  0  0  0
  4  5  1  0  0  0  0
  4  9  1  0  0  0  0
  5  7  2  0  0  0  0
  5 10  1  0  0  0  0
  6 11  1  0  0  0  0
  6 12  1  0  0  0  0
M  END
> <BCLConfClusterSize>
1

> <ConfClashScore>
0 

> <ConfOneFourInteractionScore>
0 

> <ConfScore>
0 

> <ConfScorePBest>
1 

> <SampleByParts>
1 5 

$$$$



 12 12  0  0  0  0  0  0  0  0999 V2000
   22.8322   16.4016    6.5312 C   0  0  0  1  0  0  0  0  0  0  0  0
   22.1469   17.6042    6.5311 C   0  0  0  1  0  0  0  0  0  0  0  0
   20.8086   17.6562    6.5314 N   0  0  0  1  0  0  0  0  0  0  0  0
   20.1641   16.4820    6.5309 C   0  0  0  1  0  0  0  0  0  0  0  0
   20.8495   15.2795    6.5309 C   0  0  0  1  0  0  0  0  0  0  0  0
   22.8475   18.7815    6.5307 N   0  0  0  1  0  0  0  0  0  0  0  0
   22.1877   15.2275    6.5306 N   0  0  0  1  0  0  0  0  0  0  0  0
   23.8722   16.4099    6.5318 H   0  0  0  1  0  0  0  0  0  0  0  0
   19.1241   16.4736    6.5305 H   0  0  0  1  0  0  0  0  0  0  0  0
   20.3096   14.3906    6.5311 H   0  0  0  1  0  0  0  0  0  0  0  0
   22.7746   19.3954    7.2911 H   0  0  0  1  0  0  0  0  0  0  0  0
   23.4217   19.0097    5.7700 H   0  0  0  1  0  0  0  0  0  0  0  0
  1  2  2  0  0  0  0
  1  7  1  0  0  0  0
  1  8  1  0  0  0  0
  2  3  1  0  0  0  0
  2  6  1  0  0  0  0
  3  4  2  0  0  0  0
  4  5  1  0  0  0  0
  4  9  1  0  0  0  0
  5  7  2  0  0  0  0
  5 10  1  0  0  0  0
  6 11  1  0  0  0  0
  6 12  1  0  0  0  0
M  END
> <BCLConfClusterSize>
1

> <ConfClashScore>
0 

> <ConfOneFourInteractionScore>
0 

> <ConfScore>
0 

> <ConfScorePBest>
1 

> <SampleByParts>
1 5 

$$$$



 12 12  0  0  0  0  0  0  0  0999 V2000
   20.7956   17.5852    6.5323 C   0  0  0  1  0  0  0  0  0  0  0  0
   22.1751   17.6315    6.5317 C   0  0  0  1  0  0  0  0  0  0  0  0
   22.8363   16.4178    6.5334 C   0  0  0  1  0  0  0  0  0  0  0  0
   22.1866   15.2418    6.5299 N   0  0  0  1  0  0  0  0  0  0  0  0
   20.8561   15.3215    6.5293 C   0  0  0  1  0  0  0  0  0  0  0  0
   22.8770   18.8596    6.5295 N   0  0  0  1  0  0  0  0  0  0  0  0
   20.1131   16.4307    6.5297 N   0  0  0  1  0  0  0  0  0  0  0  0
   20.2652   18.4798    6.5349 H   0  0  0  1  0  0  0  0  0  0  0  0
   23.8763   16.4147    6.5375 H   0  0  0  1  0  0  0  0  0  0  0  0
   20.3392   14.4191    6.5284 H   0  0  0  1  0  0  0  0  0  0  0  0
   23.3267   19.1684    7.3435 H   0  0  0  1  0  0  0  0  0  0  0  0
   22.9135   19.4016    5.7138 H   0  0  0  1  0  0  0  0  0  0  0  0
  1  2  2  0  0  0  0
  1  7  1  0  0  0  0
  1  8  1  0  0  0  0
  2  3  1  0  0  0  0
  2  6  1  0  0  0  0
  3  4  2  0  0  0  0
  3  9  1  0  0  0  0
  4  5  1  0  0  0  0
  5  7  2  0  0  0  0
  5 10  1  0  0  0  0
  6 11  1  0  0  0  0
  6 12  1  0  0  0  0
M  END
> <BCLConfClusterSize>
1

> <ConfClashScore>
0 

> <ConfOneFourInteractionScore>
0 

> <ConfScore>
0 

> <ConfScorePBest>
1 

> <SampleByParts>
1 5 

$$$$



 12 12  0  0  0  0  0  0  0  0999 V2000
   22.8231   16.4261    6.5389 C   0  0  0  1  0  0  0  0  0  0  0  0
   22.1666   17.6618    6.5330 C   0  0  0  1  0  0  0  0  0  0  0  0
   20.7962   17.6493    6.5322 C   0  0  0  1  0  0  0  0  0  0  0  0
   20.1614   16.4014    6.5306 C   0  0  0  1  0  0  0  0  0  0  0  0
   20.8292   15.2508    6.5211 N   0  0  0  1  0  0  0  0  0  0  0  0
   22.8898   18.8774    6.5281 N   0  0  0  1  0  0  0  0  0  0  0  0
   22.1801   15.2620    6.5243 N   0  0  0  1  0  0  0  0  0  0  0  0
   23.8629   16.4176    6.5555 H   0  0  0  1  0  0  0  0  0  0  0  0
   20.2485   18.5334    6.5328 H   0  0  0  1  0  0  0  0  0  0  0  0
   19.1218   16.3726    6.5371 H   0  0  0  1  0  0  0  0  0  0  0  0
   23.2585   19.2248    5.6891 H   0  0  0  1  0  0  0  0  0  0  0  0
   23.0222   19.3722    7.3635 H   0  0  0  1  0  0  0  0  0  0  0  0
  1  2  2  0  0  0  0
  1  7  1  0  0  0  0
  1  8  1  0  0  0  0
  2  3  1  0  0  0  0
  2  6  1  0  0  0  0
  3  4  2  0  0  0  0
  3  9  1  0  0  0  0
  4  5  1  0  0  0  0
  4 10  1  0  0  0  0
  5  7  2  0  0  0  0
  6 11  1  0  0  0  0
  6 12  1  0  0  0  0
M  END
> <BCLConfClusterSize>
1

> <ConfClashScore>
0 

> <ConfOneFourInteractionScore>
0 

> <ConfScore>
0 

> <ConfScorePBest>
1 

> <SampleByParts>
1 5 

$$$$



 13 13  0  0  0  0  0  0  0  0999 V2000
   20.8336   17.6826    6.5338 N   0  0  0  1  0  0  0  0  0  0  0  0
   22.1726   17.6180    6.5317 C   0  0  0  1  0  0  0  0  0  0  0  0
   22.8736   16.4247    6.5319 C   0  0  0  1  0  0  0  0  0  0  0  0
   22.1657   15.2387    6.5298 C   0  0  0  1  0  0  0  0  0  0  0  0
   20.7841   15.2901    6.5274 C   0  0  0  1  0  0  0  0  0  0  0  0
   22.7367   18.8971    6.5294 N   0  0  0  1  0  0  0  0  0  0  0  0
   20.1649   16.5254    6.5310 C   0  0  0  1  0  0  0  0  0  0  0  0
   23.9136   16.4211    6.5336 H   0  0  0  1  0  0  0  0  0  0  0  0
   22.6622   14.3249    6.5300 H   0  0  0  1  0  0  0  0  0  0  0  0
   20.2214   14.4155    6.5230 H   0  0  0  1  0  0  0  0  0  0  0  0
   23.6890   19.0122    6.3288 H   0  0  0  1  0  0  0  0  0  0  0  0
   22.1798   19.6786    6.7282 H   0  0  0  1  0  0  0  0  0  0  0  0
   19.1254   16.5562    6.5316 H   0  0  0  1  0  0  0  0  0  0  0  0
  1  2  2  0  0  0  0
  1  7  1  0  0  0  0
  2  3  1  0  0  0  0
  2  6  1  0  0  0  0
  3  4  2  0  0  0  0
  3  8  1  0  0  0  0
  4  5  1  0  0  0  0
  4  9  1  0  0  0  0
  5  7  2  0  0  0  0
  5 10  1  0  0  0  0
  6 11  1  0  0  0  0
  6 12  1  0  0  0  0
  7 13  1  0  0  0  0
M  END
> <BCLConfClusterSize>
1

> <ConfClashScore>
0 

> <ConfOneFourInteractionScore>
0 

> <ConfScore>
0 

> <ConfScorePBest>
1 

> <SampleByParts>
1 5 

$$$$



 13 13  0  0  0  0  0  0  0  0999 V2000
   22.8511   16.4583    6.5283 C   0  0  0  1  0  0  0  0  0  0  0  0
   22.1730   17.6633    6.5304 C   0  0  0  1  0  0  0  0  0  0  0  0
   20.7919   17.6472    6.5314 C   0  0  0  1  0  0  0  0  0  0  0  0
   20.1406   16.4260    6.5307 C   0  0  0  1  0  0  0  0  0  0  0  0
   20.7852   15.2505    6.5331 N   0  0  0  1  0  0  0  0  0  0  0  0
   22.8862   18.8930    6.6278 N   0  0  0  1  0  0  0  0  0  0  0  0
   22.1212   15.2849    6.5313 C   0  0  0  1  0  0  0  0  0  0  0  0
   23.8908   16.4355    6.5245 H   0  0  0  1  0  0  0  0  0  0  0  0
   20.2516   18.5359    6.5327 H   0  0  0  1  0  0  0  0  0  0  0  0
   19.1006   16.4199    6.5282 H   0  0  0  1  0  0  0  0  0  0  0  0
   22.7902   19.5719    5.9276 H   0  0  0  1  0  0  0  0  0  0  0  0
   23.4727   19.0599    7.3950 H   0  0  0  1  0  0  0  0  0  0  0  0
   22.6380   14.3824    6.5322 H   0  0  0  1  0  0  0  0  0  0  0  0
  1  2  2  0  0  0  0
  1  7  1  0  0  0  0
  1  8  1  0  0  0  0
  2  3  1  0  0  0  0
  2  6  1  0  0  0  0
  3  4  2  0  0  0  0
  3  9  1  0  0  0  0
  4  5  1  0  0  0  0
  4 10  1  0  0  0  0
  5  7  2  0  0  0  0
  6 11  1  0  0  0  0
  6 12  1  0  0  0  0
  7 13  1  0  0  0  0
M  END
> <BCLConfClusterSize>
1

> <ConfClashScore>
0 

> <ConfOneFourInteractionScore>
0 

> <ConfScore>
0 

> <ConfScorePBest>
1 

> <SampleByParts>
1 5 

$$$$
