


 51 54  0  0  0  0  0  0  0  0999 V2000
  -38.7141    4.0929  -44.0217 C   0  0  0  1  0  0  0  0  0  0  0  0
  -39.3480    3.5220  -43.1352 O   0  0  0  1  0  0  0  0  0  0  0  0
  -37.2059    4.2346  -43.9549 C   0  0  0  1  0  0  0  0  0  0  0  0
  -36.6875    3.5774  -42.6724 C   0  0  0  1  0  0  0  0  0  0  0  0
  -35.1594    3.6963  -42.6337 C   0  0  0  1  0  0  0  0  0  0  0  0
  -34.5837    3.1013  -43.9181 C   0  0  0  1  0  0  0  0  0  0  0  0
  -34.5645    1.5672  -43.9249 C   0  0  0  1  0  0  0  0  0  0  0  0
  -33.1685    1.6632  -43.2854 C   0  0  0  1  0  0  0  0  0  0  0  0
  -33.0507    3.0524  -43.9357 C   0  0  0  1  0  0  0  0  0  0  0  0
  -35.1510    3.6692  -45.0965 O   0  0  0  1  0  0  0  0  0  0  0  0
  -36.5746    3.5490  -45.1688 C   0  0  0  1  0  0  0  0  0  0  0  0
  -44.0914    1.7024  -50.8032 C   0  0  0  1  0  0  0  0  0  0  0  0
  -43.8654    2.0564  -49.4059 N   0  0  0  1  0  0  0  0  0  0  0  0
  -42.6946    2.1906  -48.7387 C   0  0  0  1  0  0  0  0  0  0  0  0
  -43.0102    2.5421  -47.4478 C   0  0  0  1  0  0  0  0  0  0  0  0
  -44.4101    2.6005  -47.4136 C   0  0  0  1  0  0  0  0  0  0  0  0
  -44.9346    2.2984  -48.6049 N   0  0  0  1  0  0  0  0  0  0  0  0
  -42.1515    2.8050  -46.3359 N   0  0  0  1  0  0  0  0  0  0  0  0
  -40.9340    3.6154  -46.5284 C   0  0  0  1  0  0  0  0  0  0  0  0
  -40.6802    4.6378  -45.4255 C   0  0  0  1  0  0  0  0  0  0  0  0
  -41.4592    4.3441  -44.1460 C   0  0  0  1  0  0  0  0  0  0  0  0
  -41.6416    2.8317  -43.9506 C   0  0  0  1  0  0  0  0  0  0  0  0
  -42.4591    2.3140  -45.1307 C   0  0  0  1  0  0  0  0  0  0  0  0
  -43.3492    1.4929  -44.9820 O   0  0  0  1  0  0  0  0  0  0  0  0
  -39.2560    4.6380  -45.1118 N   0  0  0  1  0  0  0  0  0  0  0  0
  -36.9379    5.2705  -43.9546 H   0  0  0  1  0  0  0  0  0  0  0  0
  -36.9674    2.5447  -42.6601 H   0  0  0  1  0  0  0  0  0  0  0  0
  -37.1074    4.0714  -41.8212 H   0  0  0  1  0  0  0  0  0  0  0  0
  -34.7790    3.1617  -41.7885 H   0  0  0  1  0  0  0  0  0  0  0  0
  -34.8813    4.7268  -42.5593 H   0  0  0  1  0  0  0  0  0  0  0  0
  -34.5818    1.1232  -44.8983 H   0  0  0  1  0  0  0  0  0  0  0  0
  -35.3087    1.1070  -43.3091 H   0  0  0  1  0  0  0  0  0  0  0  0
  -32.4630    0.9415  -43.6408 H   0  0  0  1  0  0  0  0  0  0  0  0
  -33.1660    1.6683  -42.2154 H   0  0  0  1  0  0  0  0  0  0  0  0
  -32.5718    3.7921  -43.3286 H   0  0  0  1  0  0  0  0  0  0  0  0
  -32.6135    3.0543  -44.9123 H   0  0  0  1  0  0  0  0  0  0  0  0
  -36.9268    4.0153  -46.0651 H   0  0  0  1  0  0  0  0  0  0  0  0
  -36.8453    2.5138  -45.1747 H   0  0  0  1  0  0  0  0  0  0  0  0
  -43.7816    2.5114  -51.4312 H   0  0  0  1  0  0  0  0  0  0  0  0
  -45.1324    1.5094  -50.9581 H   0  0  0  1  0  0  0  0  0  0  0  0
  -43.5259    0.8268  -51.0450 H   0  0  0  1  0  0  0  0  0  0  0  0
  -41.7400    2.0541  -49.1282 H   0  0  0  1  0  0  0  0  0  0  0  0
  -44.9678    2.8468  -46.5710 H   0  0  0  1  0  0  0  0  0  0  0  0
  -40.0944    2.9536  -46.5715 H   0  0  0  1  0  0  0  0  0  0  0  0
  -41.0238    4.1395  -47.4569 H   0  0  0  1  0  0  0  0  0  0  0  0
  -40.9670    5.6041  -45.7845 H   0  0  0  1  0  0  0  0  0  0  0  0
  -40.9233    4.7432  -43.3103 H   0  0  0  1  0  0  0  0  0  0  0  0
  -42.4215    4.8079  -44.2077 H   0  0  0  1  0  0  0  0  0  0  0  0
  -40.6873    2.3485  -43.9270 H   0  0  0  1  0  0  0  0  0  0  0  0
  -42.1610    2.6415  -43.0347 H   0  0  0  1  0  0  0  0  0  0  0  0
  -38.6516    5.0713  -45.7500 H   0  0  0  1  0  0  0  0  0  0  0  0
  1  2  2  0  0  0  0
  1  3  1  0  0  0  0
  1 25  1  0  0  0  0
  3  4  1  0  0  0  0
  3 11  1  0  0  0  0
  3 26  1  0  0  0  0
  4  5  1  0  0  0  0
  4 27  1  0  0  0  0
  4 28  1  0  0  0  0
  5  6  1  0  0  0  0
  5 29  1  0  0  0  0
  5 30  1  0  0  0  0
  6  7  1  0  0  0  0
  6  9  1  0  0  0  0
  6 10  1  0  0  0  0
  7  8  1  0  0  0  0
  7 31  1  0  0  0  0
  7 32  1  0  0  0  0
  8  9  1  0  0  0  0
  8 33  1  0  0  0  0
  8 34  1  0  0  0  0
  9 35  1  0  0  0  0
  9 36  1  0  0  0  0
 10 11  1  0  0  0  0
 11 37  1  0  0  0  0
 11 38  1  0  0  0  0
 12 13  1  0  0  0  0
 12 39  1  0  0  0  0
 12 40  1  0  0  0  0
 12 41  1  0  0  0  0
 13 14  1  0  0  0  0
 13 17  1  0  0  0  0
 14 15  2  0  0  0  0
 14 42  1  0  0  0  0
 15 16  1  0  0  0  0
 15 18  1  0  0  0  0
 16 17  2  0  0  0  0
 16 43  1  0  0  0  0
 18 19  1  0  0  0  0
 18 23  1  0  0  0  0
 19 20  1  0  0  0  0
 19 44  1  0  0  0  0
 19 45  1  0  0  0  0
 20 21  1  0  0  0  0
 20 25  1  0  0  0  0
 20 46  1  0  0  0  0
 21 22  1  0  0  0  0
 21 47  1  0  0  0  0
 21 48  1  0  0  0  0
 22 23  1  0  0  0  0
 22 49  1  0  0  0  0
 22 50  1  0  0  0  0
 23 24  2  0  0  0  0
 25 51  1  0  0  0  0
M  END
> <BCLConfClusterSize>
1

> <ConfClashScore>
0.0035328 

> <ConfOneFourInteractionScore>
-0.962736 

> <ConfScore>
0.913508 

> <ConfScorePBest>
1 

> <SampleByParts>
0 11 12 13 14 15 16 17 18 19 20 21 22 23 24 

$$$$
