


 34 36  0  0  0  0  0  0  0  0999 V2000
   17.5145   13.8606    3.4175 C   0  0  0  1  0  0  0  0  0  0  0  0
   17.3922   12.6925    2.6437 C   0  0  0  1  0  0  0  0  0  0  0  0
   16.1711   12.1338    2.5247 N   0  0  0  1  0  0  0  0  0  0  0  0
   15.1442   12.7212    3.0906 C   0  0  0  1  0  0  0  0  0  0  0  0
   15.1914   13.8383    3.8344 N   0  0  0  1  0  0  0  0  0  0  0  0
   16.4006   14.4150    3.9894 C   0  0  0  1  0  0  0  0  0  0  0  0
   13.9458   12.0347    2.8610 N   0  0  0  1  0  0  0  0  0  0  0  0
   18.7999   15.6884    4.3383 C   0  0  0  1  0  0  0  0  0  0  0  0
   18.7266   14.5143    3.5875 C   0  0  0  1  0  0  0  0  0  0  0  0
   16.4498   15.5021    4.7472 N   0  0  0  1  0  0  0  0  0  0  0  0
   17.6140   16.1408    4.9331 C   0  0  0  1  0  0  0  0  0  0  0  0
   15.2188   15.9881    5.2889 C   0  0  0  1  0  0  0  0  0  0  0  0
   17.5954   17.1509    5.6171 O   0  0  0  1  0  0  0  0  0  0  0  0
   22.0322   16.8600    5.8627 C   0  0  0  1  0  0  0  0  0  0  0  0
   22.4365   17.8308    4.9105 C   0  0  0  1  0  0  0  0  0  0  0  0
   21.6916   18.0158    3.7105 C   0  0  0  1  0  0  0  0  0  0  0  0
   20.5184   17.2560    3.5435 C   0  0  0  1  0  0  0  0  0  0  0  0
   20.1091   16.3133    4.5026 C   0  0  0  1  0  0  0  0  0  0  0  0
   20.8470   16.1383    5.6447 C   0  0  0  1  0  0  0  0  0  0  0  0
   22.9030   16.6455    7.0781 C   0  0  0  1  0  0  0  0  0  0  0  0
   18.2205   12.2716    2.1765 H   0  0  0  1  0  0  0  0  0  0  0  0
   13.4371   12.8246    2.5823 H   0  0  0  1  0  0  0  0  0  0  0  0
   13.7003   11.0900    2.9487 H   0  0  0  1  0  0  0  0  0  0  0  0
   19.5875   14.1261    3.1518 H   0  0  0  1  0  0  0  0  0  0  0  0
   15.3146   16.1002    6.3487 H   0  0  0  1  0  0  0  0  0  0  0  0
   14.4352   15.2920    5.0735 H   0  0  0  1  0  0  0  0  0  0  0  0
   14.9856   16.9356    4.8499 H   0  0  0  1  0  0  0  0  0  0  0  0
   23.2812   18.4105    5.0896 H   0  0  0  1  0  0  0  0  0  0  0  0
   22.0040   18.6894    2.9823 H   0  0  0  1  0  0  0  0  0  0  0  0
   19.9406   17.3955    2.6901 H   0  0  0  1  0  0  0  0  0  0  0  0
   20.5234   15.4590    6.3626 H   0  0  0  1  0  0  0  0  0  0  0  0
   22.5177   17.2143    7.8984 H   0  0  0  1  0  0  0  0  0  0  0  0
   23.9015   16.9634    6.8617 H   0  0  0  1  0  0  0  0  0  0  0  0
   22.9066   15.6068    7.3351 H   0  0  0  1  0  0  0  0  0  0  0  0
  1  2  1  0  0  0  0
  1  6  2  0  0  0  0
  1  9  1  0  0  0  0
  2  3  2  0  0  0  0
  2 21  1  0  0  0  0
  3  4  1  0  0  0  0
  4  5  2  0  0  0  0
  4  7  1  0  0  0  0
  5  6  1  0  0  0  0
  6 10  1  0  0  0  0
  7 22  1  0  0  0  0
  7 23  1  0  0  0  0
  8  9  2  0  0  0  0
  8 11  1  0  0  0  0
  8 18  1  0  0  0  0
  9 24  1  0  0  0  0
 10 11  1  0  0  0  0
 10 12  1  0  0  0  0
 11 13  2  0  0  0  0
 12 25  1  0  0  0  0
 12 26  1  0  0  0  0
 12 27  1  0  0  0  0
 14 15  2  0  0  0  0
 14 19  1  0  0  0  0
 14 20  1  0  0  0  0
 15 16  1  0  0  0  0
 15 28  1  0  0  0  0
 16 17  2  0  0  0  0
 16 29  1  0  0  0  0
 17 18  1  0  0  0  0
 17 30  1  0  0  0  0
 18 19  2  0  0  0  0
 19 31  1  0  0  0  0
 20 32  1  0  0  0  0
 20 33  1  0  0  0  0
 20 34  1  0  0  0  0
M  END
> <BCLConfClusterSize>
1

> <ConfClashScore>
0.00310439 

> <ConfOneFourInteractionScore>
-1 

> <ConfScore>
0.310439 

> <ConfScorePBest>
1 

> <SampleByParts>
13 19 

$$$$



 44 46  0  0  0  0  0  0  0  0999 V2000
   17.5139   13.8606    3.4170 C   0  0  0  1  0  0  0  0  0  0  0  0
   17.3917   12.6924    2.6433 C   0  0  0  1  0  0  0  0  0  0  0  0
   16.1706   12.1335    2.5246 N   0  0  0  1  0  0  0  0  0  0  0  0
   15.1437   12.7207    3.0907 C   0  0  0  1  0  0  0  0  0  0  0  0
   15.1910   13.8379    3.8344 N   0  0  0  1  0  0  0  0  0  0  0  0
   16.4001   14.4148    3.9891 C   0  0  0  1  0  0  0  0  0  0  0  0
   13.9454   12.0341    2.8614 N   0  0  0  1  0  0  0  0  0  0  0  0
   18.7993   15.6886    4.3374 C   0  0  0  1  0  0  0  0  0  0  0  0
   18.7260   14.5145    3.5867 C   0  0  0  1  0  0  0  0  0  0  0  0
   16.4493   15.5020    4.7468 N   0  0  0  1  0  0  0  0  0  0  0  0
   17.6134   16.1409    4.9325 C   0  0  0  1  0  0  0  0  0  0  0  0
   15.2184   15.9878    5.2889 C   0  0  0  1  0  0  0  0  0  0  0  0
   17.5948   17.1510    5.6165 O   0  0  0  1  0  0  0  0  0  0  0  0
   22.0317   16.8608    5.8609 C   0  0  0  1  0  0  0  0  0  0  0  0
   22.4357   17.8316    4.9086 C   0  0  0  1  0  0  0  0  0  0  0  0
   21.6905   18.0164    3.7087 C   0  0  0  1  0  0  0  0  0  0  0  0
   20.5174   17.2565    3.5421 C   0  0  0  1  0  0  0  0  0  0  0  0
   20.1085   16.3137    4.5014 C   0  0  0  1  0  0  0  0  0  0  0  0
   20.8466   16.1389    5.6433 C   0  0  0  1  0  0  0  0  0  0  0  0
   22.9021   16.6467    7.0751 C   0  0  0  1  0  0  0  0  0  0  0  0
   27.3599   15.9851    6.5394 C   0  0  0  1  0  0  0  0  0  0  0  0
   24.3414   17.0581    6.8953 C   0  0  0  1  0  0  0  0  0  0  0  0
   24.9728   16.3834    5.9303 N   0  0  0  1  0  0  0  0  0  0  0  0
   26.3691   16.6250    5.5987 C   0  0  0  1  0  0  0  0  0  0  0  0
   24.8983   17.9183    7.5522 O   0  0  0  1  0  0  0  0  0  0  0  0
   18.2199   12.2716    2.1759 H   0  0  0  1  0  0  0  0  0  0  0  0
   13.4361   12.8240    2.5841 H   0  0  0  1  0  0  0  0  0  0  0  0
   13.7005   11.0892    2.9483 H   0  0  0  1  0  0  0  0  0  0  0  0
   19.5868   14.1264    3.1508 H   0  0  0  1  0  0  0  0  0  0  0  0
   15.3144   16.0998    6.3487 H   0  0  0  1  0  0  0  0  0  0  0  0
   14.4348   15.2917    5.0736 H   0  0  0  1  0  0  0  0  0  0  0  0
   14.9850   16.9353    4.8500 H   0  0  0  1  0  0  0  0  0  0  0  0
   23.2803   18.4114    5.0875 H   0  0  0  1  0  0  0  0  0  0  0  0
   22.0026   18.6900    2.9804 H   0  0  0  1  0  0  0  0  0  0  0  0
   19.9393   17.3958    2.6889 H   0  0  0  1  0  0  0  0  0  0  0  0
   20.5234   15.4596    6.3613 H   0  0  0  1  0  0  0  0  0  0  0  0
   22.8809   15.6057    7.3215 H   0  0  0  1  0  0  0  0  0  0  0  0
   22.4915   17.2137    7.8842 H   0  0  0  1  0  0  0  0  0  0  0  0
   28.3520   16.2799    6.2677 H   0  0  0  1  0  0  0  0  0  0  0  0
   27.2746   14.9204    6.4765 H   0  0  0  1  0  0  0  0  0  0  0  0
   27.1558   16.3013    7.5410 H   0  0  0  1  0  0  0  0  0  0  0  0
   24.4785   15.7022    5.4283 H   0  0  0  1  0  0  0  0  0  0  0  0
   26.5488   16.2434    4.6154 H   0  0  0  1  0  0  0  0  0  0  0  0
   26.5357   17.6819    5.6077 H   0  0  0  1  0  0  0  0  0  0  0  0
  1  2  1  0  0  0  0
  1  6  2  0  0  0  0
  1  9  1  0  0  0  0
  2  3  2  0  0  0  0
  2 26  1  0  0  0  0
  3  4  1  0  0  0  0
  4  5  2  0  0  0  0
  4  7  1  0  0  0  0
  5  6  1  0  0  0  0
  6 10  1  0  0  0  0
  7 27  1  0  0  0  0
  7 28  1  0  0  0  0
  8  9  2  0  0  0  0
  8 11  1  0  0  0  0
  8 18  1  0  0  0  0
  9 29  1  0  0  0  0
 10 11  1  0  0  0  0
 10 12  1  0  0  0  0
 11 13  2  0  0  0  0
 12 30  1  0  0  0  0
 12 31  1  0  0  0  0
 12 32  1  0  0  0  0
 14 15  2  0  0  0  0
 14 19  1  0  0  0  0
 14 20  1  0  0  0  0
 15 16  1  0  0  0  0
 15 33  1  0  0  0  0
 16 17  2  0  0  0  0
 16 34  1  0  0  0  0
 17 18  1  0  0  0  0
 17 35  1  0  0  0  0
 18 19  2  0  0  0  0
 19 36  1  0  0  0  0
 20 22  1  0  0  0  0
 20 37  1  0  0  0  0
 20 38  1  0  0  0  0
 21 24  1  0  0  0  0
 21 39  1  0  0  0  0
 21 40  1  0  0  0  0
 21 41  1  0  0  0  0
 22 23  1  0  0  0  0
 22 25  2  0  0  0  0
 23 24  1  0  0  0  0
 23 42  1  0  0  0  0
 24 43  1  0  0  0  0
 24 44  1  0  0  0  0
M  END
> <BCLConfClusterSize>
1

> <ConfClashScore>
0.00239915 

> <ConfOneFourInteractionScore>
-0.964844 

> <ConfScore>
0.0210669 

> <ConfScorePBest>
1 

> <SampleByParts>
19 20 21 22 23 24 

$$$$



 44 46  0  0  0  0  0  0  0  0999 V2000
   17.5229   13.8613    3.4215 C   0  0  0  1  0  0  0  0  0  0  0  0
   17.4037   12.6917    2.6494 C   0  0  0  1  0  0  0  0  0  0  0  0
   16.1834   12.1317    2.5283 N   0  0  0  1  0  0  0  0  0  0  0  0
   15.1545   12.7190    3.0905 C   0  0  0  1  0  0  0  0  0  0  0  0
   15.1988   13.8374    3.8325 N   0  0  0  1  0  0  0  0  0  0  0  0
   16.4070   14.4155    3.9896 C   0  0  0  1  0  0  0  0  0  0  0  0
   13.9574   12.0310    2.8591 N   0  0  0  1  0  0  0  0  0  0  0  0
   18.8042   15.6919    4.3424 C   0  0  0  1  0  0  0  0  0  0  0  0
   18.7340   14.5164    3.5934 C   0  0  0  1  0  0  0  0  0  0  0  0
   16.4533   15.5040    4.7457 N   0  0  0  1  0  0  0  0  0  0  0  0
   17.6164   16.1442    4.9335 C   0  0  0  1  0  0  0  0  0  0  0  0
   15.2205   15.9897    5.2835 C   0  0  0  1  0  0  0  0  0  0  0  0
   17.5951   17.1553    5.6158 O   0  0  0  1  0  0  0  0  0  0  0  0
   22.0315   16.8692    5.8730 C   0  0  0  1  0  0  0  0  0  0  0  0
   22.4373   17.8387    4.9202 C   0  0  0  1  0  0  0  0  0  0  0  0
   21.6953   18.0209    3.7180 C   0  0  0  1  0  0  0  0  0  0  0  0
   20.5233   17.2598    3.5494 C   0  0  0  1  0  0  0  0  0  0  0  0
   20.1124   16.3183    4.5090 C   0  0  0  1  0  0  0  0  0  0  0  0
   20.8476   16.1459    5.6533 C   0  0  0  1  0  0  0  0  0  0  0  0
   22.8877   16.6604    7.0745 C   0  0  0  1  0  0  0  0  0  0  0  0
   27.3461   15.9541    6.5229 C   0  0  0  1  0  0  0  0  0  0  0  0
   24.3103   17.0678    6.9001 C   0  0  0  1  0  0  0  0  0  0  0  0
   24.9752   16.3598    5.8919 N   0  0  0  1  0  0  0  0  0  0  0  0
   26.3479   16.5977    5.5695 C   0  0  0  1  0  0  0  0  0  0  0  0
   24.8660   17.9315    7.5586 O   0  0  0  1  0  0  0  0  0  0  0  0
   28.6008   16.2968    6.2219 F   0  0  0  1  0  0  0  0  0  0  0  0
   27.2703   14.6228    6.4460 F   0  0  0  1  0  0  0  0  0  0  0  0
   27.1265   16.2921    7.7841 F   0  0  0  1  0  0  0  0  0  0  0  0
   18.2336   12.2709    2.1850 H   0  0  0  1  0  0  0  0  0  0  0  0
   13.4481   12.8199    2.5788 H   0  0  0  1  0  0  0  0  0  0  0  0
   13.7130   11.0860    2.9470 H   0  0  0  1  0  0  0  0  0  0  0  0
   19.5963   14.1283    3.1606 H   0  0  0  1  0  0  0  0  0  0  0  0
   15.3135   16.1037    6.3434 H   0  0  0  1  0  0  0  0  0  0  0  0
   14.4381   15.2925    5.0673 H   0  0  0  1  0  0  0  0  0  0  0  0
   14.9875   16.9362    4.8423 H   0  0  0  1  0  0  0  0  0  0  0  0
   23.2810   18.4195    5.1004 H   0  0  0  1  0  0  0  0  0  0  0  0
   22.0089   18.6936    2.9894 H   0  0  0  1  0  0  0  0  0  0  0  0
   19.9475   17.3973    2.6943 H   0  0  0  1  0  0  0  0  0  0  0  0
   20.5229   15.4675    6.3715 H   0  0  0  1  0  0  0  0  0  0  0  0
   22.8666   15.6198    7.3225 H   0  0  0  1  0  0  0  0  0  0  0  0
   22.4744   17.2285    7.8816 H   0  0  0  1  0  0  0  0  0  0  0  0
   24.4828   15.6774    5.3896 H   0  0  0  1  0  0  0  0  0  0  0  0
   26.5307   16.2146    4.5872 H   0  0  0  1  0  0  0  0  0  0  0  0
   26.5137   17.6547    5.5772 H   0  0  0  1  0  0  0  0  0  0  0  0
  1  2  1  0  0  0  0
  1  6  2  0  0  0  0
  1  9  1  0  0  0  0
  2  3  2  0  0  0  0
  2 29  1  0  0  0  0
  3  4  1  0  0  0  0
  4  5  2  0  0  0  0
  4  7  1  0  0  0  0
  5  6  1  0  0  0  0
  6 10  1  0  0  0  0
  7 30  1  0  0  0  0
  7 31  1  0  0  0  0
  8  9  2  0  0  0  0
  8 11  1  0  0  0  0
  8 18  1  0  0  0  0
  9 32  1  0  0  0  0
 10 11  1  0  0  0  0
 10 12  1  0  0  0  0
 11 13  2  0  0  0  0
 12 33  1  0  0  0  0
 12 34  1  0  0  0  0
 12 35  1  0  0  0  0
 14 15  2  0  0  0  0
 14 19  1  0  0  0  0
 14 20  1  0  0  0  0
 15 16  1  0  0  0  0
 15 36  1  0  0  0  0
 16 17  2  0  0  0  0
 16 37  1  0  0  0  0
 17 18  1  0  0  0  0
 17 38  1  0  0  0  0
 18 19  2  0  0  0  0
 19 39  1  0  0  0  0
 20 22  1  0  0  0  0
 20 40  1  0  0  0  0
 20 41  1  0  0  0  0
 21 24  1  0  0  0  0
 21 26  1  0  0  0  0
 21 27  1  0  0  0  0
 21 28  1  0  0  0  0
 22 23  1  0  0  0  0
 22 25  2  0  0  0  0
 23 24  1  0  0  0  0
 23 42  1  0  0  0  0
 24 43  1  0  0  0  0
 24 44  1  0  0  0  0
M  END
> <BCLConfClusterSize>
1

> <ConfClashScore>
0.00239884 

> <ConfOneFourInteractionScore>
-0.964844 

> <ConfScore>
0.239884 

> <ConfScorePBest>
1 

> <SampleByParts>
20 25 26 27 

$$$$
