Largest isolated from 44436307
HTcorina  11172118093D 1   1.00000     0.00000 
CORINA 4.3.0 0026  30.10.2019
 53 56  0  0  0  0  0  0  0  0999 V2000
    8.7867    0.5283  -11.1650 Cl  0  0  0  1  0  0  0  0  0  0  0  0
    0.1796    0.8824    1.3703 O   0  0  0  1  0  0  0  0  0  0  0  0
    4.8983   -0.4701   -3.6336 N   0  0  0  1  0  0  0  0  0  0  0  0
    6.3060   -1.0454   -6.0404 N   0  0  0  1  0  0  0  0  0  0  0  0
   -0.2073    1.7341   -0.7666 N   0  0  0  1  0  0  0  0  0  0  0  0
    6.2926   -0.0401   -3.8082 C   0  0  0  1  0  0  0  0  0  0  0  0
    4.1955   -0.5049   -4.9238 C   0  0  0  1  0  0  0  0  0  0  0  0
    4.2131    0.4715   -2.7379 C   0  0  0  1  0  0  0  0  0  0  0  0
    7.0088   -1.0106   -4.7502 C   0  0  0  1  0  0  0  0  0  0  0  0
    4.9117   -1.4754   -5.8659 C   0  0  0  1  0  0  0  0  0  0  0  0
    2.7619    0.1272   -2.5424 C   0  0  0  1  0  0  0  0  0  0  0  0
    1.9693    1.0973   -1.6804 C   0  0  0  1  0  0  0  0  0  0  0  0
    0.5045    0.7197   -1.5400 C   0  0  0  1  0  0  0  0  0  0  0  0
    6.8907   -0.7113   -7.2787 C   0  0  0  1  0  0  0  0  0  0  0  0
   -0.8908    2.8708   -1.3732 C   0  0  0  1  0  0  0  0  0  0  0  0
   -1.4525    3.5785   -0.1783 C   0  0  0  1  0  0  0  0  0  0  0  0
   -0.2996    1.7113    0.6112 C   0  0  0  1  0  0  0  0  0  0  0  0
   -1.1014    2.9027    0.9761 C   0  0  0  1  0  0  0  0  0  0  0  0
    7.0310   -1.6313   -8.3060 C   0  0  0  1  0  0  0  0  0  0  0  0
    7.3319    0.5874   -7.4493 C   0  0  0  1  0  0  0  0  0  0  0  0
   -2.1976    4.7478   -0.1142 C   0  0  0  1  0  0  0  0  0  0  0  0
   -1.4733    3.3424    2.2303 C   0  0  0  1  0  0  0  0  0  0  0  0
    7.6169   -1.2515   -9.4988 C   0  0  0  1  0  0  0  0  0  0  0  0
    7.9196    0.9685   -8.6455 C   0  0  0  1  0  0  0  0  0  0  0  0
   -2.5785    5.1828    1.1481 C   0  0  0  1  0  0  0  0  0  0  0  0
   -2.2333    4.4918    2.3043 C   0  0  0  1  0  0  0  0  0  0  0  0
    8.0594    0.0510   -9.6696 C   0  0  0  1  0  0  0  0  0  0  0  0
    6.7860   -0.0346   -2.8587 H   0  0  0  1  0  0  0  0  0  0  0  0
    6.3129    0.9443   -4.2269 H   0  0  0  1  0  0  0  0  0  0  0  0
    4.1922    0.4743   -5.3551 H   0  0  0  1  0  0  0  0  0  0  0  0
    3.1879   -0.8320   -4.7728 H   0  0  0  1  0  0  0  0  0  0  0  0
    4.2792    1.4538   -3.1570 H   0  0  0  1  0  0  0  0  0  0  0  0
    4.7007    0.4559   -1.7856 H   0  0  0  1  0  0  0  0  0  0  0  0
    8.0164   -0.6835   -4.9012 H   0  0  0  1  0  0  0  0  0  0  0  0
    7.0121   -1.9899   -4.3189 H   0  0  0  1  0  0  0  0  0  0  0  0
    4.4183   -1.4809   -6.8153 H   0  0  0  1  0  0  0  0  0  0  0  0
    4.8914   -2.4598   -5.4471 H   0  0  0  1  0  0  0  0  0  0  0  0
    2.7112   -0.8383   -2.0839 H   0  0  0  1  0  0  0  0  0  0  0  0
    2.2994    0.0894   -3.5066 H   0  0  0  1  0  0  0  0  0  0  0  0
    2.0281    2.0699   -2.1225 H   0  0  0  1  0  0  0  0  0  0  0  0
    2.4085    1.1212   -0.7050 H   0  0  0  1  0  0  0  0  0  0  0  0
    0.0646    0.6440   -2.5124 H   0  0  0  1  0  0  0  0  0  0  0  0
    0.4293   -0.2231   -1.0396 H   0  0  0  1  0  0  0  0  0  0  0  0
   -1.6684    2.5481   -2.0336 H   0  0  0  1  0  0  0  0  0  0  0  0
   -0.2053    3.4954   -1.9069 H   0  0  0  1  0  0  0  0  0  0  0  0
    6.6954   -2.6075   -8.1793 H   0  0  0  1  0  0  0  0  0  0  0  0
    7.2231    1.2788   -6.6800 H   0  0  0  1  0  0  0  0  0  0  0  0
   -2.4586    5.2741   -0.9725 H   0  0  0  1  0  0  0  0  0  0  0  0
   -1.1912    2.8264    3.0881 H   0  0  0  1  0  0  0  0  0  0  0  0
    7.7259   -1.9428  -10.2681 H   0  0  0  1  0  0  0  0  0  0  0  0
    8.2552    1.9446   -8.7723 H   0  0  0  1  0  0  0  0  0  0  0  0
   -3.1404    6.0540    1.2316 H   0  0  0  1  0  0  0  0  0  0  0  0
   -2.5498    4.8434    3.2305 H   0  0  0  1  0  0  0  0  0  0  0  0
  1 27  1  0  0  0  0
  2 17  2  0  0  0  0
  3  6  1  0  0  0  0
  3  7  1  0  0  0  0
  3  8  1  0  0  0  0
  4  9  1  0  0  0  0
  4 10  1  0  0  0  0
  4 14  1  0  0  0  0
  5 13  1  0  0  0  0
  5 15  1  0  0  0  0
  5 17  1  0  0  0  0
  6  9  1  0  0  0  0
  6 28  1  0  0  0  0
  6 29  1  0  0  0  0
  7 10  1  0  0  0  0
  7 30  1  0  0  0  0
  7 31  1  0  0  0  0
  8 11  1  0  0  0  0
  8 32  1  0  0  0  0
  8 33  1  0  0  0  0
  9 34  1  0  0  0  0
  9 35  1  0  0  0  0
 10 36  1  0  0  0  0
 10 37  1  0  0  0  0
 11 12  1  0  0  0  0
 11 38  1  0  0  0  0
 11 39  1  0  0  0  0
 12 13  1  0  0  0  0
 12 40  1  0  0  0  0
 12 41  1  0  0  0  0
 13 42  1  0  0  0  0
 13 43  1  0  0  0  0
 14 19  2  0  0  0  0
 14 20  1  0  0  0  0
 15 16  1  0  0  0  0
 15 44  1  0  0  0  0
 15 45  1  0  0  0  0
 16 18  1  0  0  0  0
 16 21  2  0  0  0  0
 17 18  1  0  0  0  0
 18 22  2  0  0  0  0
 19 23  1  0  0  0  0
 19 46  1  0  0  0  0
 20 24  2  0  0  0  0
 20 47  1  0  0  0  0
 21 25  1  0  0  0  0
 21 48  1  0  0  0  0
 22 26  1  0  0  0  0
 22 49  1  0  0  0  0
 23 27  2  0  0  0  0
 23 50  1  0  0  0  0
 24 27  1  0  0  0  0
 24 51  1  0  0  0  0
 25 26  2  0  0  0  0
 25 52  1  0  0  0  0
 26 53  1  0  0  0  0
M  END
> <ConfClashScore>
0 

> <ConfOneFourInteractionScore>
-1 

> <ConfScore>
0.507841 

> <ConfScorePBest>
0.00309085 

> <ConfTolerance>
0.406183 

> <DRD3_Activity_uM>
0.66

> <DRD5_Activity_uM>
0.0336

> <Index>
174

> <MCS_TANI>
0.375

> <PUBCHEM_ATOM_DEF_STEREO_COUNT>
0

> <PUBCHEM_ATOM_UDEF_STEREO_COUNT>
0

> <PUBCHEM_BONDANNOTATIONS>
14  19  8
14  20  8
16  18  8
16  21  8
18  22  8
19  23  8
20  24  8
21  25  8
22  26  8
23  27  8
24  27  8
25  26  8

> <PUBCHEM_BOND_DEF_STEREO_COUNT>
0

> <PUBCHEM_BOND_UDEF_STEREO_COUNT>
0

> <PUBCHEM_CACTVS_COMPLEXITY>
486

> <PUBCHEM_CACTVS_HBOND_ACCEPTOR>
3

> <PUBCHEM_CACTVS_HBOND_DONOR>
0

> <PUBCHEM_CACTVS_ROTATABLE_BOND>
6

> <PUBCHEM_CACTVS_SUBSKEYS>
AAADceB7IAAEAAAAAAAAAAAAAAAAAWAAAAA8YIAAAAAAAFgBQAAAHgIAAAAADArBmCQwwIMAAACIAiVSUACCAAAlBwAIiAEIZsgIYDLBl5GUIQhghgDIyYcciICOgABAAAAQAAAAAIAAACAAAAAAAAAAAA==

> <PUBCHEM_CACTVS_TAUTO_COUNT>
-1

> <PUBCHEM_CACTVS_TPSA>
26.8

> <PUBCHEM_COMPONENT_COUNT>
1

> <PUBCHEM_COMPOUND_CANONICALIZED>
1

> <PUBCHEM_COMPOUND_CID>
44436307

> <PUBCHEM_COORDINATE_TYPE>
1
5
255

> <PUBCHEM_EXACT_MASS>
383.1764402

> <PUBCHEM_HEAVY_ATOM_COUNT>
27

> <PUBCHEM_ISOTOPIC_ATOM_COUNT>
0

> <PUBCHEM_IUPAC_CAS_NAME>
2-[4-[4-(4-chlorophenyl)-1-piperazinyl]butyl]-3H-isoindol-1-one

> <PUBCHEM_IUPAC_INCHI>
InChI=1S/C22H26ClN3O/c23-19-7-9-20(10-8-19)25-15-13-24(14-16-25)11-3-4-12-26-17-18-5-1-2-6-21(18)22(26)27/h1-2,5-10H,3-4,11-17H2

> <PUBCHEM_IUPAC_INCHIKEY>
NKVMKOOELRVUPV-UHFFFAOYSA-N

> <PUBCHEM_IUPAC_NAME>
2-[4-[4-(4-chlorophenyl)piperazin-1-yl]butyl]-3H-isoindol-1-one

> <PUBCHEM_IUPAC_NAME_MARKUP>
2-[4-[4-(4-chlorophenyl)piperazin-1-yl]butyl]-3<I>H</I>-isoindol-1-one

> <PUBCHEM_IUPAC_OPENEYE_NAME>
2-[4-[4-(4-chlorophenyl)piperazin-1-yl]butyl]isoindolin-1-one

> <PUBCHEM_IUPAC_SYSTEMATIC_NAME>
2-[4-[4-(4-chlorophenyl)piperazin-1-yl]butyl]-3H-isoindol-1-one

> <PUBCHEM_IUPAC_TRADITIONAL_NAME>
2-[4-[4-(4-chlorophenyl)piperazino]butyl]isoindolin-1-one

> <PUBCHEM_MOLECULAR_FORMULA>
C22H26ClN3O

> <PUBCHEM_MOLECULAR_WEIGHT>
383.9

> <PUBCHEM_MONOISOTOPIC_WEIGHT>
383.1764402

> <PUBCHEM_OPENEYE_CAN_SMILES>
C1CN(CCN1CCCCN2CC3=CC=CC=C3C2=O)C4=CC=C(C=C4)Cl

> <PUBCHEM_OPENEYE_ISO_SMILES>
C1CN(CCN1CCCCN2CC3=CC=CC=C3C2=O)C4=CC=C(C=C4)Cl

> <PUBCHEM_TOTAL_CHARGE>
0

> <PUBCHEM_XLOGP3_AA>
3.9

> <PropertyFieldDistance>
3.01

$$$$
