


 11 11  0  0  0  0  0  0  0  0999 V2000
   22.8813   16.4507    6.5309 C   0  0  0  1  0  0  0  0  0  0  0  0
   22.1790   17.6671    6.5309 C   0  0  0  1  0  0  0  0  0  0  0  0
   20.7745   17.6671    6.5309 C   0  0  0  1  0  0  0  0  0  0  0  0
   20.0723   16.4507    6.5309 C   0  0  0  1  0  0  0  0  0  0  0  0
   20.7744   15.2342    6.5309 C   0  0  0  1  0  0  0  0  0  0  0  0
   23.1242   19.3037    6.5309 Br  0  0  0  1  0  0  0  0  0  0  0  0
   22.2292   15.1473    6.5309 N   0  0  0  1  0  0  0  0  0  0  0  0
   24.2238   16.4511    6.5309 F   0  0  0  1  0  0  0  0  0  0  0  0
   20.2545   18.5677    6.5309 H   0  0  0  1  0  0  0  0  0  0  0  0
   19.0323   16.4507    6.5309 H   0  0  0  1  0  0  0  0  0  0  0  0
   20.2277   14.3495    6.5309 H   0  0  0  1  0  0  0  0  0  0  0  0
  1  2  2  0  0  0  0
  1  7  1  0  0  0  0
  1  8  1  0  0  0  0
  2  3  1  0  0  0  0
  2  6  1  0  0  0  0
  3  4  2  0  0  0  0
  3  9  1  0  0  0  0
  4  5  1  0  0  0  0
  4 10  1  0  0  0  0
  5  7  2  0  0  0  0
  5 11  1  0  0  0  0
M  END
> <BCLConfClusterSize>
1

> <ConfClashScore>
0 

> <ConfOneFourInteractionScore>
0 

> <ConfScore>
0 

> <ConfScorePBest>
1 

> <SampleByParts>
0 7 

$$$$



 11 11  0  0  0  0  0  0  0  0999 V2000
   22.8813   16.4507    6.5309 C   0  0  0  1  0  0  0  0  0  0  0  0
   22.1790   17.6671    6.5309 C   0  0  0  1  0  0  0  0  0  0  0  0
   20.7745   17.6671    6.5309 C   0  0  0  1  0  0  0  0  0  0  0  0
   20.0723   16.4507    6.5309 C   0  0  0  1  0  0  0  0  0  0  0  0
   20.7744   15.2342    6.5309 C   0  0  0  1  0  0  0  0  0  0  0  0
   23.1242   19.3037    6.5309 Br  0  0  0  1  0  0  0  0  0  0  0  0
   22.2292   15.1473    6.5309 N   0  0  0  1  0  0  0  0  0  0  0  0
   23.9208   16.4817    6.5309 H   0  0  0  1  0  0  0  0  0  0  0  0
   20.2545   18.5677    6.5309 H   0  0  0  1  0  0  0  0  0  0  0  0
   19.0323   16.4507    6.5309 H   0  0  0  1  0  0  0  0  0  0  0  0
   20.2277   14.3495    6.5309 H   0  0  0  1  0  0  0  0  0  0  0  0
  1  2  2  0  0  0  0
  1  7  1  0  0  0  0
  1  8  1  0  0  0  0
  2  3  1  0  0  0  0
  2  6  1  0  0  0  0
  3  4  2  0  0  0  0
  3  9  1  0  0  0  0
  4  5  1  0  0  0  0
  4 10  1  0  0  0  0
  5  7  2  0  0  0  0
  5 11  1  0  0  0  0
M  END
$$$$



 11 11  0  0  0  0  0  0  0  0999 V2000
   22.8813   16.4507    6.5309 C   0  0  0  1  0  0  0  0  0  0  0  0
   22.1790   17.6671    6.5309 C   0  0  0  1  0  0  0  0  0  0  0  0
   20.7745   17.6671    6.5309 C   0  0  0  1  0  0  0  0  0  0  0  0
   20.0723   16.4507    6.5309 C   0  0  0  1  0  0  0  0  0  0  0  0
   20.7744   15.2342    6.5309 C   0  0  0  1  0  0  0  0  0  0  0  0
   23.1242   19.3037    6.5309 Br  0  0  0  1  0  0  0  0  0  0  0  0
   22.2292   15.1473    6.5309 N   0  0  0  1  0  0  0  0  0  0  0  0
   20.0622   18.8101    6.5309 F   0  0  0  1  0  0  0  0  0  0  0  0
   23.9208   16.4817    6.5309 H   0  0  0  1  0  0  0  0  0  0  0  0
   19.0323   16.4507    6.5309 H   0  0  0  1  0  0  0  0  0  0  0  0
   20.2277   14.3495    6.5309 H   0  0  0  1  0  0  0  0  0  0  0  0
  1  2  2  0  0  0  0
  1  7  1  0  0  0  0
  1  9  1  0  0  0  0
  2  3  1  0  0  0  0
  2  6  1  0  0  0  0
  3  4  2  0  0  0  0
  3  8  1  0  0  0  0
  4  5  1  0  0  0  0
  4 10  1  0  0  0  0
  5  7  2  0  0  0  0
  5 11  1  0  0  0  0
M  END
> <BCLConfClusterSize>
1

> <ConfClashScore>
0 

> <ConfOneFourInteractionScore>
0 

> <ConfScore>
0 

> <ConfScorePBest>
1 

> <SampleByParts>
2 7 

$$$$



 11 11  0  0  0  0  0  0  0  0999 V2000
   22.8813   16.4507    6.5309 C   0  0  0  1  0  0  0  0  0  0  0  0
   22.1790   17.6671    6.5309 C   0  0  0  1  0  0  0  0  0  0  0  0
   20.7745   17.6671    6.5309 C   0  0  0  1  0  0  0  0  0  0  0  0
   20.0723   16.4507    6.5309 C   0  0  0  1  0  0  0  0  0  0  0  0
   20.7744   15.2342    6.5309 C   0  0  0  1  0  0  0  0  0  0  0  0
   23.1242   19.3037    6.5309 Br  0  0  0  1  0  0  0  0  0  0  0  0
   22.2292   15.1473    6.5309 N   0  0  0  1  0  0  0  0  0  0  0  0
   18.7255   16.4508    6.5309 F   0  0  0  1  0  0  0  0  0  0  0  0
   23.9208   16.4817    6.5309 H   0  0  0  1  0  0  0  0  0  0  0  0
   20.2545   18.5677    6.5309 H   0  0  0  1  0  0  0  0  0  0  0  0
   20.2277   14.3495    6.5309 H   0  0  0  1  0  0  0  0  0  0  0  0
  1  2  2  0  0  0  0
  1  7  1  0  0  0  0
  1  9  1  0  0  0  0
  2  3  1  0  0  0  0
  2  6  1  0  0  0  0
  3  4  2  0  0  0  0
  3 10  1  0  0  0  0
  4  5  1  0  0  0  0
  4  8  1  0  0  0  0
  5  7  2  0  0  0  0
  5 11  1  0  0  0  0
M  END
> <BCLConfClusterSize>
1

> <ConfClashScore>
0 

> <ConfOneFourInteractionScore>
0 

> <ConfScore>
0 

> <ConfScorePBest>
1 

> <SampleByParts>
3 7 

$$$$



 11 11  0  0  0  0  0  0  0  0999 V2000
   22.8813   16.4507    6.5309 C   0  0  0  1  0  0  0  0  0  0  0  0
   22.1790   17.6671    6.5309 C   0  0  0  1  0  0  0  0  0  0  0  0
   20.7745   17.6671    6.5309 C   0  0  0  1  0  0  0  0  0  0  0  0
   20.0723   16.4507    6.5309 C   0  0  0  1  0  0  0  0  0  0  0  0
   20.7744   15.2342    6.5309 C   0  0  0  1  0  0  0  0  0  0  0  0
   23.1242   19.3037    6.5309 Br  0  0  0  1  0  0  0  0  0  0  0  0
   22.2292   15.1473    6.5309 N   0  0  0  1  0  0  0  0  0  0  0  0
   20.1027   14.0718    6.5309 F   0  0  0  1  0  0  0  0  0  0  0  0
   23.9208   16.4817    6.5309 H   0  0  0  1  0  0  0  0  0  0  0  0
   20.2545   18.5677    6.5309 H   0  0  0  1  0  0  0  0  0  0  0  0
   19.0323   16.4507    6.5309 H   0  0  0  1  0  0  0  0  0  0  0  0
  1  2  2  0  0  0  0
  1  7  1  0  0  0  0
  1  9  1  0  0  0  0
  2  3  1  0  0  0  0
  2  6  1  0  0  0  0
  3  4  2  0  0  0  0
  3 10  1  0  0  0  0
  4  5  1  0  0  0  0
  4 11  1  0  0  0  0
  5  7  2  0  0  0  0
  5  8  1  0  0  0  0
M  END
> <BCLConfClusterSize>
1

> <ConfClashScore>
0 

> <ConfOneFourInteractionScore>
0 

> <ConfScore>
0 

> <ConfScorePBest>
1 

> <SampleByParts>
4 7 

$$$$



 12 12  0  0  0  0  0  0  0  0999 V2000
   22.8620   16.4567    6.5319 C   0  0  0  1  0  0  0  0  0  0  0  0
   22.1686   17.6569    6.5316 C   0  0  0  1  0  0  0  0  0  0  0  0
   20.7865   17.6568    6.5332 C   0  0  0  1  0  0  0  0  0  0  0  0
   20.0938   16.4562    6.5296 C   0  0  0  1  0  0  0  0  0  0  0  0
   20.7849   15.2593    6.5299 C   0  0  0  1  0  0  0  0  0  0  0  0
   23.1133   19.2939    6.5292 Br  0  0  0  1  0  0  0  0  0  0  0  0
   22.1711   15.2596    6.5283 C   0  0  0  1  0  0  0  0  0  0  0  0
   24.2088   16.4570    6.5357 F   0  0  0  1  0  0  0  0  0  0  0  0
   20.2663   18.5574    6.5371 H   0  0  0  1  0  0  0  0  0  0  0  0
   19.0538   16.4560    6.5267 H   0  0  0  1  0  0  0  0  0  0  0  0
   20.2650   14.3586    6.5313 H   0  0  0  1  0  0  0  0  0  0  0  0
   22.6913   14.3590    6.5244 H   0  0  0  1  0  0  0  0  0  0  0  0
  1  2  2  0  0  0  0
  1  7  1  0  0  0  0
  1  8  1  0  0  0  0
  2  3  1  0  0  0  0
  2  6  1  0  0  0  0
  3  4  2  0  0  0  0
  3  9  1  0  0  0  0
  4  5  1  0  0  0  0
  4 10  1  0  0  0  0
  5  7  2  0  0  0  0
  5 11  1  0  0  0  0
  7 12  1  0  0  0  0
M  END
> <BCLConfClusterSize>
1

> <ConfClashScore>
0 

> <ConfOneFourInteractionScore>
0 

> <ConfScore>
0 

> <ConfScorePBest>
1 

> <SampleByParts>
0 7 

$$$$



 12 12  0  0  0  0  0  0  0  0999 V2000
   22.8620   16.4567    6.5319 C   0  0  0  1  0  0  0  0  0  0  0  0
   22.1686   17.6569    6.5316 C   0  0  0  1  0  0  0  0  0  0  0  0
   20.7865   17.6568    6.5332 C   0  0  0  1  0  0  0  0  0  0  0  0
   20.0938   16.4562    6.5296 C   0  0  0  1  0  0  0  0  0  0  0  0
   20.7849   15.2593    6.5299 C   0  0  0  1  0  0  0  0  0  0  0  0
   23.1133   19.2939    6.5292 Br  0  0  0  1  0  0  0  0  0  0  0  0
   22.1711   15.2596    6.5283 C   0  0  0  1  0  0  0  0  0  0  0  0
   23.9020   16.4569    6.5348 H   0  0  0  1  0  0  0  0  0  0  0  0
   20.2663   18.5574    6.5371 H   0  0  0  1  0  0  0  0  0  0  0  0
   19.0538   16.4560    6.5267 H   0  0  0  1  0  0  0  0  0  0  0  0
   20.2650   14.3586    6.5313 H   0  0  0  1  0  0  0  0  0  0  0  0
   22.6913   14.3590    6.5244 H   0  0  0  1  0  0  0  0  0  0  0  0
  1  2  2  0  0  0  0
  1  7  1  0  0  0  0
  1  8  1  0  0  0  0
  2  3  1  0  0  0  0
  2  6  1  0  0  0  0
  3  4  2  0  0  0  0
  3  9  1  0  0  0  0
  4  5  1  0  0  0  0
  4 10  1  0  0  0  0
  5  7  2  0  0  0  0
  5 11  1  0  0  0  0
  7 12  1  0  0  0  0
M  END
$$$$



 12 12  0  0  0  0  0  0  0  0999 V2000
   22.8620   16.4567    6.5319 C   0  0  0  1  0  0  0  0  0  0  0  0
   22.1686   17.6569    6.5316 C   0  0  0  1  0  0  0  0  0  0  0  0
   20.7865   17.6568    6.5332 C   0  0  0  1  0  0  0  0  0  0  0  0
   20.0938   16.4562    6.5296 C   0  0  0  1  0  0  0  0  0  0  0  0
   20.7849   15.2593    6.5299 C   0  0  0  1  0  0  0  0  0  0  0  0
   23.1133   19.2939    6.5292 Br  0  0  0  1  0  0  0  0  0  0  0  0
   22.1711   15.2596    6.5283 C   0  0  0  1  0  0  0  0  0  0  0  0
   20.0740   18.7997    6.5382 F   0  0  0  1  0  0  0  0  0  0  0  0
   23.9020   16.4569    6.5348 H   0  0  0  1  0  0  0  0  0  0  0  0
   19.0538   16.4560    6.5267 H   0  0  0  1  0  0  0  0  0  0  0  0
   20.2650   14.3586    6.5313 H   0  0  0  1  0  0  0  0  0  0  0  0
   22.6913   14.3590    6.5244 H   0  0  0  1  0  0  0  0  0  0  0  0
  1  2  2  0  0  0  0
  1  7  1  0  0  0  0
  1  9  1  0  0  0  0
  2  3  1  0  0  0  0
  2  6  1  0  0  0  0
  3  4  2  0  0  0  0
  3  8  1  0  0  0  0
  4  5  1  0  0  0  0
  4 10  1  0  0  0  0
  5  7  2  0  0  0  0
  5 11  1  0  0  0  0
  7 12  1  0  0  0  0
M  END
> <BCLConfClusterSize>
1

> <ConfClashScore>
0 

> <ConfOneFourInteractionScore>
0 

> <ConfScore>
0 

> <ConfScorePBest>
1 

> <SampleByParts>
2 7 

$$$$



 12 12  0  0  0  0  0  0  0  0999 V2000
   22.8620   16.4567    6.5319 C   0  0  0  1  0  0  0  0  0  0  0  0
   22.1686   17.6569    6.5316 C   0  0  0  1  0  0  0  0  0  0  0  0
   20.7865   17.6568    6.5332 C   0  0  0  1  0  0  0  0  0  0  0  0
   20.0938   16.4562    6.5296 C   0  0  0  1  0  0  0  0  0  0  0  0
   20.7849   15.2593    6.5299 C   0  0  0  1  0  0  0  0  0  0  0  0
   23.1133   19.2939    6.5292 Br  0  0  0  1  0  0  0  0  0  0  0  0
   22.1711   15.2596    6.5283 C   0  0  0  1  0  0  0  0  0  0  0  0
   18.7470   16.4560    6.5258 F   0  0  0  1  0  0  0  0  0  0  0  0
   23.9020   16.4569    6.5348 H   0  0  0  1  0  0  0  0  0  0  0  0
   20.2663   18.5574    6.5371 H   0  0  0  1  0  0  0  0  0  0  0  0
   20.2650   14.3586    6.5313 H   0  0  0  1  0  0  0  0  0  0  0  0
   22.6913   14.3590    6.5244 H   0  0  0  1  0  0  0  0  0  0  0  0
  1  2  2  0  0  0  0
  1  7  1  0  0  0  0
  1  9  1  0  0  0  0
  2  3  1  0  0  0  0
  2  6  1  0  0  0  0
  3  4  2  0  0  0  0
  3 10  1  0  0  0  0
  4  5  1  0  0  0  0
  4  8  1  0  0  0  0
  5  7  2  0  0  0  0
  5 11  1  0  0  0  0
  7 12  1  0  0  0  0
M  END
> <BCLConfClusterSize>
1

> <ConfClashScore>
0 

> <ConfOneFourInteractionScore>
0 

> <ConfScore>
0 

> <ConfScorePBest>
1 

> <SampleByParts>
3 7 

$$$$



 12 12  0  0  0  0  0  0  0  0999 V2000
   22.8620   16.4567    6.5319 C   0  0  0  1  0  0  0  0  0  0  0  0
   22.1686   17.6569    6.5316 C   0  0  0  1  0  0  0  0  0  0  0  0
   20.7865   17.6568    6.5332 C   0  0  0  1  0  0  0  0  0  0  0  0
   20.0938   16.4562    6.5296 C   0  0  0  1  0  0  0  0  0  0  0  0
   20.7849   15.2593    6.5299 C   0  0  0  1  0  0  0  0  0  0  0  0
   23.1133   19.2939    6.5292 Br  0  0  0  1  0  0  0  0  0  0  0  0
   22.1711   15.2596    6.5283 C   0  0  0  1  0  0  0  0  0  0  0  0
   20.1116   14.0928    6.5317 F   0  0  0  1  0  0  0  0  0  0  0  0
   23.9020   16.4569    6.5348 H   0  0  0  1  0  0  0  0  0  0  0  0
   20.2663   18.5574    6.5371 H   0  0  0  1  0  0  0  0  0  0  0  0
   19.0538   16.4560    6.5267 H   0  0  0  1  0  0  0  0  0  0  0  0
   22.6913   14.3590    6.5244 H   0  0  0  1  0  0  0  0  0  0  0  0
  1  2  2  0  0  0  0
  1  7  1  0  0  0  0
  1  9  1  0  0  0  0
  2  3  1  0  0  0  0
  2  6  1  0  0  0  0
  3  4  2  0  0  0  0
  3 10  1  0  0  0  0
  4  5  1  0  0  0  0
  4 11  1  0  0  0  0
  5  7  2  0  0  0  0
  5  8  1  0  0  0  0
  7 12  1  0  0  0  0
M  END
> <BCLConfClusterSize>
1

> <ConfClashScore>
0 

> <ConfOneFourInteractionScore>
0 

> <ConfScore>
0 

> <ConfScorePBest>
1 

> <SampleByParts>
4 7 

$$$$



 10 10  0  0  0  0  0  0  0  0999 V2000
   22.8386   16.4726    6.5409 N   0  0  0  1  0  0  0  0  0  0  0  0
   22.1435   17.6070    6.5348 C   0  0  0  1  0  0  0  0  0  0  0  0
   20.7438   17.6413    6.5349 C   0  0  0  1  0  0  0  0  0  0  0  0
   20.0817   16.4414    6.5319 C   0  0  0  1  0  0  0  0  0  0  0  0
   20.8572   15.2767    6.5224 C   0  0  0  1  0  0  0  0  0  0  0  0
   23.1397   19.2132    6.5260 Br  0  0  0  1  0  0  0  0  0  0  0  0
   22.1870   15.2893    6.5355 N   0  0  0  1  0  0  0  0  0  0  0  0
   20.2261   18.5432    6.5372 H   0  0  0  1  0  0  0  0  0  0  0  0
   19.0426   16.3981    6.5365 H   0  0  0  1  0  0  0  0  0  0  0  0
   20.3707   14.3577    6.5042 H   0  0  0  1  0  0  0  0  0  0  0  0
  1  2  2  0  0  0  0
  1  7  1  0  0  0  0
  2  3  1  0  0  0  0
  2  6  1  0  0  0  0
  3  4  2  0  0  0  0
  3  8  1  0  0  0  0
  4  5  1  0  0  0  0
  4  9  1  0  0  0  0
  5  7  2  0  0  0  0
  5 10  1  0  0  0  0
M  END
$$$$



 10 10  0  0  0  0  0  0  0  0999 V2000
   22.8386   16.4726    6.5409 N   0  0  0  1  0  0  0  0  0  0  0  0
   22.1435   17.6070    6.5348 C   0  0  0  1  0  0  0  0  0  0  0  0
   20.7438   17.6413    6.5349 C   0  0  0  1  0  0  0  0  0  0  0  0
   20.0817   16.4414    6.5319 C   0  0  0  1  0  0  0  0  0  0  0  0
   20.8572   15.2767    6.5224 C   0  0  0  1  0  0  0  0  0  0  0  0
   23.1397   19.2132    6.5260 Br  0  0  0  1  0  0  0  0  0  0  0  0
   22.1870   15.2893    6.5355 N   0  0  0  1  0  0  0  0  0  0  0  0
   20.0734   18.8094    6.5378 F   0  0  0  1  0  0  0  0  0  0  0  0
   19.0426   16.3981    6.5365 H   0  0  0  1  0  0  0  0  0  0  0  0
   20.3707   14.3577    6.5042 H   0  0  0  1  0  0  0  0  0  0  0  0
  1  2  2  0  0  0  0
  1  7  1  0  0  0  0
  2  3  1  0  0  0  0
  2  6  1  0  0  0  0
  3  4  2  0  0  0  0
  3  8  1  0  0  0  0
  4  5  1  0  0  0  0
  4  9  1  0  0  0  0
  5  7  2  0  0  0  0
  5 10  1  0  0  0  0
M  END
> <BCLConfClusterSize>
1

> <ConfClashScore>
0 

> <ConfOneFourInteractionScore>
0 

> <ConfScore>
0 

> <ConfScorePBest>
1 

> <SampleByParts>
2 7 

$$$$



 10 10  0  0  0  0  0  0  0  0999 V2000
   22.8386   16.4726    6.5409 N   0  0  0  1  0  0  0  0  0  0  0  0
   22.1435   17.6070    6.5348 C   0  0  0  1  0  0  0  0  0  0  0  0
   20.7438   17.6413    6.5349 C   0  0  0  1  0  0  0  0  0  0  0  0
   20.0817   16.4414    6.5319 C   0  0  0  1  0  0  0  0  0  0  0  0
   20.8572   15.2767    6.5224 C   0  0  0  1  0  0  0  0  0  0  0  0
   23.1397   19.2132    6.5260 Br  0  0  0  1  0  0  0  0  0  0  0  0
   22.1870   15.2893    6.5355 N   0  0  0  1  0  0  0  0  0  0  0  0
   18.7360   16.3854    6.5379 F   0  0  0  1  0  0  0  0  0  0  0  0
   20.2261   18.5432    6.5372 H   0  0  0  1  0  0  0  0  0  0  0  0
   20.3707   14.3577    6.5042 H   0  0  0  1  0  0  0  0  0  0  0  0
  1  2  2  0  0  0  0
  1  7  1  0  0  0  0
  2  3  1  0  0  0  0
  2  6  1  0  0  0  0
  3  4  2  0  0  0  0
  3  9  1  0  0  0  0
  4  5  1  0  0  0  0
  4  8  1  0  0  0  0
  5  7  2  0  0  0  0
  5 10  1  0  0  0  0
M  END
> <BCLConfClusterSize>
1

> <ConfClashScore>
0 

> <ConfOneFourInteractionScore>
0 

> <ConfScore>
0 

> <ConfScorePBest>
1 

> <SampleByParts>
3 7 

$$$$



 10 10  0  0  0  0  0  0  0  0999 V2000
   22.8386   16.4726    6.5409 N   0  0  0  1  0  0  0  0  0  0  0  0
   22.1435   17.6070    6.5348 C   0  0  0  1  0  0  0  0  0  0  0  0
   20.7438   17.6413    6.5349 C   0  0  0  1  0  0  0  0  0  0  0  0
   20.0817   16.4414    6.5319 C   0  0  0  1  0  0  0  0  0  0  0  0
   20.8572   15.2767    6.5224 C   0  0  0  1  0  0  0  0  0  0  0  0
   23.1397   19.2132    6.5260 Br  0  0  0  1  0  0  0  0  0  0  0  0
   22.1870   15.2893    6.5355 N   0  0  0  1  0  0  0  0  0  0  0  0
   20.2645   14.0723    6.4990 F   0  0  0  1  0  0  0  0  0  0  0  0
   20.2261   18.5432    6.5372 H   0  0  0  1  0  0  0  0  0  0  0  0
   19.0426   16.3981    6.5365 H   0  0  0  1  0  0  0  0  0  0  0  0
  1  2  2  0  0  0  0
  1  7  1  0  0  0  0
  2  3  1  0  0  0  0
  2  6  1  0  0  0  0
  3  4  2  0  0  0  0
  3  9  1  0  0  0  0
  4  5  1  0  0  0  0
  4 10  1  0  0  0  0
  5  7  2  0  0  0  0
  5  8  1  0  0  0  0
M  END
> <BCLConfClusterSize>
1

> <ConfClashScore>
0 

> <ConfOneFourInteractionScore>
0 

> <ConfScore>
0 

> <ConfScorePBest>
1 

> <SampleByParts>
4 7 

$$$$



 10 10  0  0  0  0  0  0  0  0999 V2000
   22.8329   16.4028    6.5312 C   0  0  0  1  0  0  0  0  0  0  0  0
   22.1476   17.6054    6.5311 C   0  0  0  1  0  0  0  0  0  0  0  0
   20.8093   17.6574    6.5314 N   0  0  0  1  0  0  0  0  0  0  0  0
   20.1648   16.4832    6.5309 C   0  0  0  1  0  0  0  0  0  0  0  0
   20.8502   15.2807    6.5309 C   0  0  0  1  0  0  0  0  0  0  0  0
   23.0760   19.2516    6.5307 Br  0  0  0  1  0  0  0  0  0  0  0  0
   22.1884   15.2287    6.5306 N   0  0  0  1  0  0  0  0  0  0  0  0
   24.1750   16.3738    6.5319 F   0  0  0  1  0  0  0  0  0  0  0  0
   19.1248   16.4748    6.5305 H   0  0  0  1  0  0  0  0  0  0  0  0
   20.3103   14.3918    6.5311 H   0  0  0  1  0  0  0  0  0  0  0  0
  1  2  2  0  0  0  0
  1  7  1  0  0  0  0
  1  8  1  0  0  0  0
  2  3  1  0  0  0  0
  2  6  1  0  0  0  0
  3  4  2  0  0  0  0
  4  5  1  0  0  0  0
  4  9  1  0  0  0  0
  5  7  2  0  0  0  0
  5 10  1  0  0  0  0
M  END
> <BCLConfClusterSize>
1

> <ConfClashScore>
0 

> <ConfOneFourInteractionScore>
0 

> <ConfScore>
0 

> <ConfScorePBest>
1 

> <SampleByParts>
0 7 

$$$$



 10 10  0  0  0  0  0  0  0  0999 V2000
   22.8329   16.4028    6.5312 C   0  0  0  1  0  0  0  0  0  0  0  0
   22.1476   17.6054    6.5311 C   0  0  0  1  0  0  0  0  0  0  0  0
   20.8093   17.6574    6.5314 N   0  0  0  1  0  0  0  0  0  0  0  0
   20.1648   16.4832    6.5309 C   0  0  0  1  0  0  0  0  0  0  0  0
   20.8502   15.2807    6.5309 C   0  0  0  1  0  0  0  0  0  0  0  0
   23.0760   19.2516    6.5307 Br  0  0  0  1  0  0  0  0  0  0  0  0
   22.1884   15.2287    6.5306 N   0  0  0  1  0  0  0  0  0  0  0  0
   23.8728   16.4111    6.5318 H   0  0  0  1  0  0  0  0  0  0  0  0
   19.1248   16.4748    6.5305 H   0  0  0  1  0  0  0  0  0  0  0  0
   20.3103   14.3918    6.5311 H   0  0  0  1  0  0  0  0  0  0  0  0
  1  2  2  0  0  0  0
  1  7  1  0  0  0  0
  1  8  1  0  0  0  0
  2  3  1  0  0  0  0
  2  6  1  0  0  0  0
  3  4  2  0  0  0  0
  4  5  1  0  0  0  0
  4  9  1  0  0  0  0
  5  7  2  0  0  0  0
  5 10  1  0  0  0  0
M  END
$$$$



 10 10  0  0  0  0  0  0  0  0999 V2000
   22.8329   16.4028    6.5312 C   0  0  0  1  0  0  0  0  0  0  0  0
   22.1476   17.6054    6.5311 C   0  0  0  1  0  0  0  0  0  0  0  0
   20.8093   17.6574    6.5314 N   0  0  0  1  0  0  0  0  0  0  0  0
   20.1648   16.4832    6.5309 C   0  0  0  1  0  0  0  0  0  0  0  0
   20.8502   15.2807    6.5309 C   0  0  0  1  0  0  0  0  0  0  0  0
   23.0760   19.2516    6.5307 Br  0  0  0  1  0  0  0  0  0  0  0  0
   22.1884   15.2287    6.5306 N   0  0  0  1  0  0  0  0  0  0  0  0
   18.8226   16.5121    6.5304 F   0  0  0  1  0  0  0  0  0  0  0  0
   23.8728   16.4111    6.5318 H   0  0  0  1  0  0  0  0  0  0  0  0
   20.3103   14.3918    6.5311 H   0  0  0  1  0  0  0  0  0  0  0  0
  1  2  2  0  0  0  0
  1  7  1  0  0  0  0
  1  9  1  0  0  0  0
  2  3  1  0  0  0  0
  2  6  1  0  0  0  0
  3  4  2  0  0  0  0
  4  5  1  0  0  0  0
  4  8  1  0  0  0  0
  5  7  2  0  0  0  0
  5 10  1  0  0  0  0
M  END
> <BCLConfClusterSize>
1

> <ConfClashScore>
0 

> <ConfOneFourInteractionScore>
0 

> <ConfScore>
0 

> <ConfScorePBest>
1 

> <SampleByParts>
3 7 

$$$$



 10 10  0  0  0  0  0  0  0  0999 V2000
   22.8329   16.4028    6.5312 C   0  0  0  1  0  0  0  0  0  0  0  0
   22.1476   17.6054    6.5311 C   0  0  0  1  0  0  0  0  0  0  0  0
   20.8093   17.6574    6.5314 N   0  0  0  1  0  0  0  0  0  0  0  0
   20.1648   16.4832    6.5309 C   0  0  0  1  0  0  0  0  0  0  0  0
   20.8502   15.2807    6.5309 C   0  0  0  1  0  0  0  0  0  0  0  0
   23.0760   19.2516    6.5307 Br  0  0  0  1  0  0  0  0  0  0  0  0
   22.1884   15.2287    6.5306 N   0  0  0  1  0  0  0  0  0  0  0  0
   20.1875   14.1132    6.5312 F   0  0  0  1  0  0  0  0  0  0  0  0
   23.8728   16.4111    6.5318 H   0  0  0  1  0  0  0  0  0  0  0  0
   19.1248   16.4748    6.5305 H   0  0  0  1  0  0  0  0  0  0  0  0
  1  2  2  0  0  0  0
  1  7  1  0  0  0  0
  1  9  1  0  0  0  0
  2  3  1  0  0  0  0
  2  6  1  0  0  0  0
  3  4  2  0  0  0  0
  4  5  1  0  0  0  0
  4 10  1  0  0  0  0
  5  7  2  0  0  0  0
  5  8  1  0  0  0  0
M  END
> <BCLConfClusterSize>
1

> <ConfClashScore>
0 

> <ConfOneFourInteractionScore>
0 

> <ConfScore>
0 

> <ConfScorePBest>
1 

> <SampleByParts>
4 7 

$$$$



 10 10  0  0  0  0  0  0  0  0999 V2000
   20.7956   17.5852    6.5323 C   0  0  0  1  0  0  0  0  0  0  0  0
   22.1751   17.6315    6.5317 C   0  0  0  1  0  0  0  0  0  0  0  0
   22.8363   16.4178    6.5334 C   0  0  0  1  0  0  0  0  0  0  0  0
   22.1866   15.2418    6.5299 N   0  0  0  1  0  0  0  0  0  0  0  0
   20.8561   15.3215    6.5293 C   0  0  0  1  0  0  0  0  0  0  0  0
   23.1128   19.2725    6.5288 Br  0  0  0  1  0  0  0  0  0  0  0  0
   20.1131   16.4307    6.5297 N   0  0  0  1  0  0  0  0  0  0  0  0
   20.0771   18.7192    6.5356 F   0  0  0  1  0  0  0  0  0  0  0  0
   23.8763   16.4147    6.5375 H   0  0  0  1  0  0  0  0  0  0  0  0
   20.3391   14.4191    6.5284 H   0  0  0  1  0  0  0  0  0  0  0  0
  1  2  2  0  0  0  0
  1  7  1  0  0  0  0
  1  8  1  0  0  0  0
  2  3  1  0  0  0  0
  2  6  1  0  0  0  0
  3  4  2  0  0  0  0
  3  9  1  0  0  0  0
  4  5  1  0  0  0  0
  5  7  2  0  0  0  0
  5 10  1  0  0  0  0
M  END
> <BCLConfClusterSize>
1

> <ConfClashScore>
0 

> <ConfOneFourInteractionScore>
0 

> <ConfScore>
0 

> <ConfScorePBest>
1 

> <SampleByParts>
0 7 

$$$$



 10 10  0  0  0  0  0  0  0  0999 V2000
   20.7956   17.5852    6.5323 C   0  0  0  1  0  0  0  0  0  0  0  0
   22.1751   17.6315    6.5317 C   0  0  0  1  0  0  0  0  0  0  0  0
   22.8363   16.4178    6.5334 C   0  0  0  1  0  0  0  0  0  0  0  0
   22.1866   15.2418    6.5299 N   0  0  0  1  0  0  0  0  0  0  0  0
   20.8561   15.3215    6.5293 C   0  0  0  1  0  0  0  0  0  0  0  0
   23.1128   19.2725    6.5288 Br  0  0  0  1  0  0  0  0  0  0  0  0
   20.1131   16.4307    6.5297 N   0  0  0  1  0  0  0  0  0  0  0  0
   20.2652   18.4797    6.5349 H   0  0  0  1  0  0  0  0  0  0  0  0
   23.8763   16.4147    6.5375 H   0  0  0  1  0  0  0  0  0  0  0  0
   20.3391   14.4191    6.5284 H   0  0  0  1  0  0  0  0  0  0  0  0
  1  2  2  0  0  0  0
  1  7  1  0  0  0  0
  1  8  1  0  0  0  0
  2  3  1  0  0  0  0
  2  6  1  0  0  0  0
  3  4  2  0  0  0  0
  3  9  1  0  0  0  0
  4  5  1  0  0  0  0
  5  7  2  0  0  0  0
  5 10  1  0  0  0  0
M  END
$$$$



 10 10  0  0  0  0  0  0  0  0999 V2000
   20.7956   17.5852    6.5323 C   0  0  0  1  0  0  0  0  0  0  0  0
   22.1751   17.6315    6.5317 C   0  0  0  1  0  0  0  0  0  0  0  0
   22.8363   16.4178    6.5334 C   0  0  0  1  0  0  0  0  0  0  0  0
   22.1866   15.2418    6.5299 N   0  0  0  1  0  0  0  0  0  0  0  0
   20.8561   15.3215    6.5293 C   0  0  0  1  0  0  0  0  0  0  0  0
   23.1128   19.2725    6.5288 Br  0  0  0  1  0  0  0  0  0  0  0  0
   20.1131   16.4307    6.5297 N   0  0  0  1  0  0  0  0  0  0  0  0
   24.1781   16.3742    6.5387 F   0  0  0  1  0  0  0  0  0  0  0  0
   20.2652   18.4797    6.5349 H   0  0  0  1  0  0  0  0  0  0  0  0
   20.3391   14.4191    6.5284 H   0  0  0  1  0  0  0  0  0  0  0  0
  1  2  2  0  0  0  0
  1  7  1  0  0  0  0
  1  9  1  0  0  0  0
  2  3  1  0  0  0  0
  2  6  1  0  0  0  0
  3  4  2  0  0  0  0
  3  8  1  0  0  0  0
  4  5  1  0  0  0  0
  5  7  2  0  0  0  0
  5 10  1  0  0  0  0
M  END
> <BCLConfClusterSize>
1

> <ConfClashScore>
0 

> <ConfOneFourInteractionScore>
0 

> <ConfScore>
0 

> <ConfScorePBest>
1 

> <SampleByParts>
2 7 

$$$$



 10 10  0  0  0  0  0  0  0  0999 V2000
   20.7956   17.5852    6.5323 C   0  0  0  1  0  0  0  0  0  0  0  0
   22.1751   17.6315    6.5317 C   0  0  0  1  0  0  0  0  0  0  0  0
   22.8363   16.4178    6.5334 C   0  0  0  1  0  0  0  0  0  0  0  0
   22.1866   15.2418    6.5299 N   0  0  0  1  0  0  0  0  0  0  0  0
   20.8561   15.3215    6.5293 C   0  0  0  1  0  0  0  0  0  0  0  0
   23.1128   19.2725    6.5288 Br  0  0  0  1  0  0  0  0  0  0  0  0
   20.1131   16.4307    6.5297 N   0  0  0  1  0  0  0  0  0  0  0  0
   20.1684   14.1831    6.5282 F   0  0  0  1  0  0  0  0  0  0  0  0
   20.2652   18.4797    6.5349 H   0  0  0  1  0  0  0  0  0  0  0  0
   23.8763   16.4147    6.5375 H   0  0  0  1  0  0  0  0  0  0  0  0
  1  2  2  0  0  0  0
  1  7  1  0  0  0  0
  1  9  1  0  0  0  0
  2  3  1  0  0  0  0
  2  6  1  0  0  0  0
  3  4  2  0  0  0  0
  3 10  1  0  0  0  0
  4  5  1  0  0  0  0
  5  7  2  0  0  0  0
  5  8  1  0  0  0  0
M  END
> <BCLConfClusterSize>
1

> <ConfClashScore>
0 

> <ConfOneFourInteractionScore>
0 

> <ConfScore>
0 

> <ConfScorePBest>
1 

> <SampleByParts>
4 7 

$$$$



 10 10  0  0  0  0  0  0  0  0999 V2000
   22.8231   16.4261    6.5389 C   0  0  0  1  0  0  0  0  0  0  0  0
   22.1666   17.6618    6.5330 C   0  0  0  1  0  0  0  0  0  0  0  0
   20.7962   17.6493    6.5322 C   0  0  0  1  0  0  0  0  0  0  0  0
   20.1614   16.4014    6.5306 C   0  0  0  1  0  0  0  0  0  0  0  0
   20.8292   15.2508    6.5211 N   0  0  0  1  0  0  0  0  0  0  0  0
   23.1330   19.2860    6.5265 Br  0  0  0  1  0  0  0  0  0  0  0  0
   22.1801   15.2620    6.5243 N   0  0  0  1  0  0  0  0  0  0  0  0
   24.1645   16.3755    6.5601 F   0  0  0  1  0  0  0  0  0  0  0  0
   20.2485   18.5334    6.5328 H   0  0  0  1  0  0  0  0  0  0  0  0
   19.1218   16.3726    6.5371 H   0  0  0  1  0  0  0  0  0  0  0  0
  1  2  2  0  0  0  0
  1  7  1  0  0  0  0
  1  8  1  0  0  0  0
  2  3  1  0  0  0  0
  2  6  1  0  0  0  0
  3  4  2  0  0  0  0
  3  9  1  0  0  0  0
  4  5  1  0  0  0  0
  4 10  1  0  0  0  0
  5  7  2  0  0  0  0
M  END
> <BCLConfClusterSize>
1

> <ConfClashScore>
0 

> <ConfOneFourInteractionScore>
0 

> <ConfScore>
0 

> <ConfScorePBest>
1 

> <SampleByParts>
0 7 

$$$$



 10 10  0  0  0  0  0  0  0  0999 V2000
   22.8231   16.4261    6.5389 C   0  0  0  1  0  0  0  0  0  0  0  0
   22.1666   17.6618    6.5330 C   0  0  0  1  0  0  0  0  0  0  0  0
   20.7962   17.6493    6.5322 C   0  0  0  1  0  0  0  0  0  0  0  0
   20.1614   16.4014    6.5306 C   0  0  0  1  0  0  0  0  0  0  0  0
   20.8292   15.2508    6.5211 N   0  0  0  1  0  0  0  0  0  0  0  0
   23.1330   19.2860    6.5265 Br  0  0  0  1  0  0  0  0  0  0  0  0
   22.1801   15.2620    6.5243 N   0  0  0  1  0  0  0  0  0  0  0  0
   23.8629   16.4176    6.5555 H   0  0  0  1  0  0  0  0  0  0  0  0
   20.2485   18.5334    6.5328 H   0  0  0  1  0  0  0  0  0  0  0  0
   19.1218   16.3726    6.5371 H   0  0  0  1  0  0  0  0  0  0  0  0
  1  2  2  0  0  0  0
  1  7  1  0  0  0  0
  1  8  1  0  0  0  0
  2  3  1  0  0  0  0
  2  6  1  0  0  0  0
  3  4  2  0  0  0  0
  3  9  1  0  0  0  0
  4  5  1  0  0  0  0
  4 10  1  0  0  0  0
  5  7  2  0  0  0  0
M  END
$$$$



 10 10  0  0  0  0  0  0  0  0999 V2000
   22.8231   16.4261    6.5389 C   0  0  0  1  0  0  0  0  0  0  0  0
   22.1666   17.6618    6.5330 C   0  0  0  1  0  0  0  0  0  0  0  0
   20.7962   17.6493    6.5322 C   0  0  0  1  0  0  0  0  0  0  0  0
   20.1614   16.4014    6.5306 C   0  0  0  1  0  0  0  0  0  0  0  0
   20.8292   15.2508    6.5211 N   0  0  0  1  0  0  0  0  0  0  0  0
   23.1330   19.2860    6.5265 Br  0  0  0  1  0  0  0  0  0  0  0  0
   22.1801   15.2620    6.5243 N   0  0  0  1  0  0  0  0  0  0  0  0
   20.1258   18.8174    6.5330 F   0  0  0  1  0  0  0  0  0  0  0  0
   23.8629   16.4176    6.5555 H   0  0  0  1  0  0  0  0  0  0  0  0
   19.1218   16.3726    6.5371 H   0  0  0  1  0  0  0  0  0  0  0  0
  1  2  2  0  0  0  0
  1  7  1  0  0  0  0
  1  9  1  0  0  0  0
  2  3  1  0  0  0  0
  2  6  1  0  0  0  0
  3  4  2  0  0  0  0
  3  8  1  0  0  0  0
  4  5  1  0  0  0  0
  4 10  1  0  0  0  0
  5  7  2  0  0  0  0
M  END
> <BCLConfClusterSize>
1

> <ConfClashScore>
0 

> <ConfOneFourInteractionScore>
0 

> <ConfScore>
0 

> <ConfScorePBest>
1 

> <SampleByParts>
2 7 

$$$$



 10 10  0  0  0  0  0  0  0  0999 V2000
   22.8231   16.4261    6.5389 C   0  0  0  1  0  0  0  0  0  0  0  0
   22.1666   17.6618    6.5330 C   0  0  0  1  0  0  0  0  0  0  0  0
   20.7962   17.6493    6.5322 C   0  0  0  1  0  0  0  0  0  0  0  0
   20.1614   16.4014    6.5306 C   0  0  0  1  0  0  0  0  0  0  0  0
   20.8292   15.2508    6.5211 N   0  0  0  1  0  0  0  0  0  0  0  0
   23.1330   19.2860    6.5265 Br  0  0  0  1  0  0  0  0  0  0  0  0
   22.1801   15.2620    6.5243 N   0  0  0  1  0  0  0  0  0  0  0  0
   18.8211   16.3246    6.5388 F   0  0  0  1  0  0  0  0  0  0  0  0
   23.8629   16.4176    6.5555 H   0  0  0  1  0  0  0  0  0  0  0  0
   20.2485   18.5334    6.5328 H   0  0  0  1  0  0  0  0  0  0  0  0
  1  2  2  0  0  0  0
  1  7  1  0  0  0  0
  1  9  1  0  0  0  0
  2  3  1  0  0  0  0
  2  6  1  0  0  0  0
  3  4  2  0  0  0  0
  3 10  1  0  0  0  0
  4  5  1  0  0  0  0
  4  8  1  0  0  0  0
  5  7  2  0  0  0  0
M  END
> <BCLConfClusterSize>
1

> <ConfClashScore>
0 

> <ConfOneFourInteractionScore>
0 

> <ConfScore>
0 

> <ConfScorePBest>
1 

> <SampleByParts>
3 7 

$$$$



 11 11  0  0  0  0  0  0  0  0999 V2000
   20.8327   17.6809    6.5338 N   0  0  0  1  0  0  0  0  0  0  0  0
   22.1717   17.6163    6.5317 C   0  0  0  1  0  0  0  0  0  0  0  0
   22.8727   16.4229    6.5319 C   0  0  0  1  0  0  0  0  0  0  0  0
   22.1647   15.2370    6.5298 C   0  0  0  1  0  0  0  0  0  0  0  0
   20.7831   15.2884    6.5274 C   0  0  0  1  0  0  0  0  0  0  0  0
   23.0382   19.2959    6.5287 Br  0  0  0  1  0  0  0  0  0  0  0  0
   20.1640   16.5237    6.5310 C   0  0  0  1  0  0  0  0  0  0  0  0
   23.9127   16.4193    6.5336 H   0  0  0  1  0  0  0  0  0  0  0  0
   22.6612   14.3231    6.5300 H   0  0  0  1  0  0  0  0  0  0  0  0
   20.2204   14.4138    6.5230 H   0  0  0  1  0  0  0  0  0  0  0  0
   19.1245   16.5546    6.5316 H   0  0  0  1  0  0  0  0  0  0  0  0
  1  2  2  0  0  0  0
  1  7  1  0  0  0  0
  2  3  1  0  0  0  0
  2  6  1  0  0  0  0
  3  4  2  0  0  0  0
  3  8  1  0  0  0  0
  4  5  1  0  0  0  0
  4  9  1  0  0  0  0
  5  7  2  0  0  0  0
  5 10  1  0  0  0  0
  7 11  1  0  0  0  0
M  END
$$$$



 11 11  0  0  0  0  0  0  0  0999 V2000
   20.8327   17.6809    6.5338 N   0  0  0  1  0  0  0  0  0  0  0  0
   22.1717   17.6163    6.5317 C   0  0  0  1  0  0  0  0  0  0  0  0
   22.8727   16.4229    6.5319 C   0  0  0  1  0  0  0  0  0  0  0  0
   22.1647   15.2370    6.5298 C   0  0  0  1  0  0  0  0  0  0  0  0
   20.7831   15.2884    6.5274 C   0  0  0  1  0  0  0  0  0  0  0  0
   23.0382   19.2959    6.5287 Br  0  0  0  1  0  0  0  0  0  0  0  0
   20.1640   16.5237    6.5310 C   0  0  0  1  0  0  0  0  0  0  0  0
   24.2195   16.4182    6.5341 F   0  0  0  1  0  0  0  0  0  0  0  0
   22.6612   14.3231    6.5300 H   0  0  0  1  0  0  0  0  0  0  0  0
   20.2204   14.4138    6.5230 H   0  0  0  1  0  0  0  0  0  0  0  0
   19.1245   16.5546    6.5316 H   0  0  0  1  0  0  0  0  0  0  0  0
  1  2  2  0  0  0  0
  1  7  1  0  0  0  0
  2  3  1  0  0  0  0
  2  6  1  0  0  0  0
  3  4  2  0  0  0  0
  3  8  1  0  0  0  0
  4  5  1  0  0  0  0
  4  9  1  0  0  0  0
  5  7  2  0  0  0  0
  5 10  1  0  0  0  0
  7 11  1  0  0  0  0
M  END
> <BCLConfClusterSize>
1

> <ConfClashScore>
0 

> <ConfOneFourInteractionScore>
0 

> <ConfScore>
0 

> <ConfScorePBest>
1 

> <SampleByParts>
2 7 

$$$$



 11 11  0  0  0  0  0  0  0  0999 V2000
   20.8327   17.6809    6.5338 N   0  0  0  1  0  0  0  0  0  0  0  0
   22.1717   17.6163    6.5317 C   0  0  0  1  0  0  0  0  0  0  0  0
   22.8727   16.4229    6.5319 C   0  0  0  1  0  0  0  0  0  0  0  0
   22.1647   15.2370    6.5298 C   0  0  0  1  0  0  0  0  0  0  0  0
   20.7831   15.2884    6.5274 C   0  0  0  1  0  0  0  0  0  0  0  0
   23.0382   19.2959    6.5287 Br  0  0  0  1  0  0  0  0  0  0  0  0
   20.1640   16.5237    6.5310 C   0  0  0  1  0  0  0  0  0  0  0  0
   22.7675   14.0325    6.5300 F   0  0  0  1  0  0  0  0  0  0  0  0
   23.9127   16.4193    6.5336 H   0  0  0  1  0  0  0  0  0  0  0  0
   20.2204   14.4138    6.5230 H   0  0  0  1  0  0  0  0  0  0  0  0
   19.1245   16.5546    6.5316 H   0  0  0  1  0  0  0  0  0  0  0  0
  1  2  2  0  0  0  0
  1  7  1  0  0  0  0
  2  3  1  0  0  0  0
  2  6  1  0  0  0  0
  3  4  2  0  0  0  0
  3  9  1  0  0  0  0
  4  5  1  0  0  0  0
  4  8  1  0  0  0  0
  5  7  2  0  0  0  0
  5 10  1  0  0  0  0
  7 11  1  0  0  0  0
M  END
> <BCLConfClusterSize>
1

> <ConfClashScore>
0 

> <ConfOneFourInteractionScore>
0 

> <ConfScore>
0 

> <ConfScorePBest>
1 

> <SampleByParts>
3 7 

$$$$



 11 11  0  0  0  0  0  0  0  0999 V2000
   20.8327   17.6809    6.5338 N   0  0  0  1  0  0  0  0  0  0  0  0
   22.1717   17.6163    6.5317 C   0  0  0  1  0  0  0  0  0  0  0  0
   22.8727   16.4229    6.5319 C   0  0  0  1  0  0  0  0  0  0  0  0
   22.1647   15.2370    6.5298 C   0  0  0  1  0  0  0  0  0  0  0  0
   20.7831   15.2884    6.5274 C   0  0  0  1  0  0  0  0  0  0  0  0
   23.0382   19.2959    6.5287 Br  0  0  0  1  0  0  0  0  0  0  0  0
   20.1640   16.5237    6.5310 C   0  0  0  1  0  0  0  0  0  0  0  0
   20.0544   14.1558    6.5217 F   0  0  0  1  0  0  0  0  0  0  0  0
   23.9127   16.4193    6.5336 H   0  0  0  1  0  0  0  0  0  0  0  0
   22.6612   14.3231    6.5300 H   0  0  0  1  0  0  0  0  0  0  0  0
   19.1245   16.5546    6.5316 H   0  0  0  1  0  0  0  0  0  0  0  0
  1  2  2  0  0  0  0
  1  7  1  0  0  0  0
  2  3  1  0  0  0  0
  2  6  1  0  0  0  0
  3  4  2  0  0  0  0
  3  9  1  0  0  0  0
  4  5  1  0  0  0  0
  4 10  1  0  0  0  0
  5  7  2  0  0  0  0
  5  8  1  0  0  0  0
  7 11  1  0  0  0  0
M  END
> <BCLConfClusterSize>
1

> <ConfClashScore>
0 

> <ConfOneFourInteractionScore>
0 

> <ConfScore>
0 

> <ConfScorePBest>
1 

> <SampleByParts>
4 7 

$$$$



 11 11  0  0  0  0  0  0  0  0999 V2000
   22.8511   16.4583    6.5283 C   0  0  0  1  0  0  0  0  0  0  0  0
   22.1730   17.6633    6.5304 C   0  0  0  1  0  0  0  0  0  0  0  0
   20.7919   17.6472    6.5314 C   0  0  0  1  0  0  0  0  0  0  0  0
   20.1406   16.4260    6.5307 C   0  0  0  1  0  0  0  0  0  0  0  0
   20.7852   15.2505    6.5331 N   0  0  0  1  0  0  0  0  0  0  0  0
   23.1175   19.3004    6.5317 Br  0  0  0  1  0  0  0  0  0  0  0  0
   22.1212   15.2849    6.5313 C   0  0  0  1  0  0  0  0  0  0  0  0
   24.1976   16.4287    6.5234 F   0  0  0  1  0  0  0  0  0  0  0  0
   20.2516   18.5359    6.5327 H   0  0  0  1  0  0  0  0  0  0  0  0
   19.1006   16.4200    6.5282 H   0  0  0  1  0  0  0  0  0  0  0  0
   22.6380   14.3824    6.5322 H   0  0  0  1  0  0  0  0  0  0  0  0
  1  2  2  0  0  0  0
  1  7  1  0  0  0  0
  1  8  1  0  0  0  0
  2  3  1  0  0  0  0
  2  6  1  0  0  0  0
  3  4  2  0  0  0  0
  3  9  1  0  0  0  0
  4  5  1  0  0  0  0
  4 10  1  0  0  0  0
  5  7  2  0  0  0  0
  7 11  1  0  0  0  0
M  END
> <BCLConfClusterSize>
1

> <ConfClashScore>
0 

> <ConfOneFourInteractionScore>
0 

> <ConfScore>
0 

> <ConfScorePBest>
1 

> <SampleByParts>
0 7 

$$$$



 11 11  0  0  0  0  0  0  0  0999 V2000
   22.8511   16.4583    6.5283 C   0  0  0  1  0  0  0  0  0  0  0  0
   22.1730   17.6633    6.5304 C   0  0  0  1  0  0  0  0  0  0  0  0
   20.7919   17.6472    6.5314 C   0  0  0  1  0  0  0  0  0  0  0  0
   20.1406   16.4260    6.5307 C   0  0  0  1  0  0  0  0  0  0  0  0
   20.7852   15.2505    6.5331 N   0  0  0  1  0  0  0  0  0  0  0  0
   23.1175   19.3004    6.5317 Br  0  0  0  1  0  0  0  0  0  0  0  0
   22.1212   15.2849    6.5313 C   0  0  0  1  0  0  0  0  0  0  0  0
   23.8908   16.4355    6.5245 H   0  0  0  1  0  0  0  0  0  0  0  0
   20.2516   18.5359    6.5327 H   0  0  0  1  0  0  0  0  0  0  0  0
   19.1006   16.4200    6.5282 H   0  0  0  1  0  0  0  0  0  0  0  0
   22.6380   14.3824    6.5322 H   0  0  0  1  0  0  0  0  0  0  0  0
  1  2  2  0  0  0  0
  1  7  1  0  0  0  0
  1  8  1  0  0  0  0
  2  3  1  0  0  0  0
  2  6  1  0  0  0  0
  3  4  2  0  0  0  0
  3  9  1  0  0  0  0
  4  5  1  0  0  0  0
  4 10  1  0  0  0  0
  5  7  2  0  0  0  0
  7 11  1  0  0  0  0
M  END
$$$$



 11 11  0  0  0  0  0  0  0  0999 V2000
   22.8511   16.4583    6.5283 C   0  0  0  1  0  0  0  0  0  0  0  0
   22.1730   17.6633    6.5304 C   0  0  0  1  0  0  0  0  0  0  0  0
   20.7919   17.6472    6.5314 C   0  0  0  1  0  0  0  0  0  0  0  0
   20.1406   16.4260    6.5307 C   0  0  0  1  0  0  0  0  0  0  0  0
   20.7852   15.2505    6.5331 N   0  0  0  1  0  0  0  0  0  0  0  0
   23.1175   19.3004    6.5317 Br  0  0  0  1  0  0  0  0  0  0  0  0
   22.1212   15.2849    6.5313 C   0  0  0  1  0  0  0  0  0  0  0  0
   20.0922   18.7980    6.5330 F   0  0  0  1  0  0  0  0  0  0  0  0
   23.8908   16.4355    6.5245 H   0  0  0  1  0  0  0  0  0  0  0  0
   19.1006   16.4200    6.5282 H   0  0  0  1  0  0  0  0  0  0  0  0
   22.6380   14.3824    6.5322 H   0  0  0  1  0  0  0  0  0  0  0  0
  1  2  2  0  0  0  0
  1  7  1  0  0  0  0
  1  9  1  0  0  0  0
  2  3  1  0  0  0  0
  2  6  1  0  0  0  0
  3  4  2  0  0  0  0
  3  8  1  0  0  0  0
  4  5  1  0  0  0  0
  4 10  1  0  0  0  0
  5  7  2  0  0  0  0
  7 11  1  0  0  0  0
M  END
> <BCLConfClusterSize>
1

> <ConfClashScore>
0 

> <ConfOneFourInteractionScore>
0 

> <ConfScore>
0 

> <ConfScorePBest>
1 

> <SampleByParts>
2 7 

$$$$



 11 11  0  0  0  0  0  0  0  0999 V2000
   22.8511   16.4583    6.5283 C   0  0  0  1  0  0  0  0  0  0  0  0
   22.1730   17.6633    6.5304 C   0  0  0  1  0  0  0  0  0  0  0  0
   20.7919   17.6472    6.5314 C   0  0  0  1  0  0  0  0  0  0  0  0
   20.1406   16.4260    6.5307 C   0  0  0  1  0  0  0  0  0  0  0  0
   20.7852   15.2505    6.5331 N   0  0  0  1  0  0  0  0  0  0  0  0
   23.1175   19.3004    6.5317 Br  0  0  0  1  0  0  0  0  0  0  0  0
   22.1212   15.2849    6.5313 C   0  0  0  1  0  0  0  0  0  0  0  0
   18.7990   16.3786    6.5275 F   0  0  0  1  0  0  0  0  0  0  0  0
   23.8908   16.4355    6.5245 H   0  0  0  1  0  0  0  0  0  0  0  0
   20.2516   18.5359    6.5327 H   0  0  0  1  0  0  0  0  0  0  0  0
   22.6380   14.3824    6.5322 H   0  0  0  1  0  0  0  0  0  0  0  0
  1  2  2  0  0  0  0
  1  7  1  0  0  0  0
  1  9  1  0  0  0  0
  2  3  1  0  0  0  0
  2  6  1  0  0  0  0
  3  4  2  0  0  0  0
  3 10  1  0  0  0  0
  4  5  1  0  0  0  0
  4  8  1  0  0  0  0
  5  7  2  0  0  0  0
  7 11  1  0  0  0  0
M  END
> <BCLConfClusterSize>
1

> <ConfClashScore>
0 

> <ConfOneFourInteractionScore>
0 

> <ConfScore>
0 

> <ConfScorePBest>
1 

> <SampleByParts>
3 7 

$$$$
