


 11 11  0  0  0  0  0  0  0  0999 V2000
   22.8813   16.4507    6.5309 C   0  0  0  1  0  0  0  0  0  0  0  0
   22.1790   17.6671    6.5309 C   0  0  0  1  0  0  0  0  0  0  0  0
   20.7745   17.6671    6.5309 C   0  0  0  1  0  0  0  0  0  0  0  0
   20.0723   16.4507    6.5309 C   0  0  0  1  0  0  0  0  0  0  0  0
   20.7744   15.2342    6.5309 C   0  0  0  1  0  0  0  0  0  0  0  0
   23.1242   19.3037    6.5309 Br  0  0  0  1  0  0  0  0  0  0  0  0
   22.2292   15.1473    6.5309 N   0  0  0  1  0  0  0  0  0  0  0  0
   23.9208   16.4817    6.5309 H   0  0  0  1  0  0  0  0  0  0  0  0
   20.2545   18.5678    6.5309 H   0  0  0  1  0  0  0  0  0  0  0  0
   19.0323   16.4508    6.5309 H   0  0  0  1  0  0  0  0  0  0  0  0
   20.2277   14.3495    6.5309 H   0  0  0  1  0  0  0  0  0  0  0  0
  1  2  2  0  0  0  0
  1  7  1  0  0  0  0
  1  8  1  0  0  0  0
  2  3  1  0  0  0  0
  2  6  1  0  0  0  0
  3  4  2  0  0  0  0
  3  9  1  0  0  0  0
  4  5  1  0  0  0  0
  4 10  1  0  0  0  0
  5  7  2  0  0  0  0
  5 11  1  0  0  0  0
M  END
$$$$



 12 12  0  0  0  0  0  0  0  0999 V2000
   22.8620   16.4567    6.5319 C   0  0  0  1  0  0  0  0  0  0  0  0
   22.1686   17.6569    6.5316 C   0  0  0  1  0  0  0  0  0  0  0  0
   20.7865   17.6568    6.5332 C   0  0  0  1  0  0  0  0  0  0  0  0
   20.0938   16.4562    6.5296 C   0  0  0  1  0  0  0  0  0  0  0  0
   20.7849   15.2593    6.5299 C   0  0  0  1  0  0  0  0  0  0  0  0
   23.1133   19.2939    6.5292 Br  0  0  0  1  0  0  0  0  0  0  0  0
   22.1711   15.2596    6.5283 C   0  0  0  1  0  0  0  0  0  0  0  0
   23.9020   16.4569    6.5348 H   0  0  0  1  0  0  0  0  0  0  0  0
   20.2664   18.5574    6.5371 H   0  0  0  1  0  0  0  0  0  0  0  0
   19.0538   16.4560    6.5267 H   0  0  0  1  0  0  0  0  0  0  0  0
   20.2651   14.3585    6.5312 H   0  0  0  1  0  0  0  0  0  0  0  0
   22.6913   14.3590    6.5244 H   0  0  0  1  0  0  0  0  0  0  0  0
  1  2  2  0  0  0  0
  1  7  1  0  0  0  0
  1  8  1  0  0  0  0
  2  3  1  0  0  0  0
  2  6  1  0  0  0  0
  3  4  2  0  0  0  0
  3  9  1  0  0  0  0
  4  5  1  0  0  0  0
  4 10  1  0  0  0  0
  5  7  2  0  0  0  0
  5 11  1  0  0  0  0
  7 12  1  0  0  0  0
M  END
> <BCLConfClusterSize>
1

> <ConfClashScore>
0 

> <ConfOneFourInteractionScore>
0 

> <ConfScore>
0 

> <ConfScorePBest>
1 

> <SampleByParts>
0 1 2 3 4 6 

$$$$



 10 10  0  0  0  0  0  0  0  0999 V2000
   22.8379   16.4715    6.5409 N   0  0  0  1  0  0  0  0  0  0  0  0
   22.1428   17.6059    6.5348 C   0  0  0  1  0  0  0  0  0  0  0  0
   20.7431   17.6401    6.5349 C   0  0  0  1  0  0  0  0  0  0  0  0
   20.0810   16.4402    6.5319 C   0  0  0  1  0  0  0  0  0  0  0  0
   20.8565   15.2755    6.5224 C   0  0  0  1  0  0  0  0  0  0  0  0
   23.1439   19.2201    6.5260 Br  0  0  0  1  0  0  0  0  0  0  0  0
   22.1863   15.2882    6.5355 N   0  0  0  1  0  0  0  0  0  0  0  0
   20.2253   18.5421    6.5371 H   0  0  0  1  0  0  0  0  0  0  0  0
   19.0420   16.3969    6.5365 H   0  0  0  1  0  0  0  0  0  0  0  0
   20.3700   14.3566    6.5042 H   0  0  0  1  0  0  0  0  0  0  0  0
  1  2  2  0  0  0  0
  1  7  1  0  0  0  0
  2  3  1  0  0  0  0
  2  6  1  0  0  0  0
  3  4  2  0  0  0  0
  3  8  1  0  0  0  0
  4  5  1  0  0  0  0
  4  9  1  0  0  0  0
  5  7  2  0  0  0  0
  5 10  1  0  0  0  0
M  END
> <BCLConfClusterSize>
1

> <ConfClashScore>
0 

> <ConfOneFourInteractionScore>
0 

> <ConfScore>
0 

> <ConfScorePBest>
1 

> <SampleByParts>
0 1 2 3 4 6 

$$$$



 10 10  0  0  0  0  0  0  0  0999 V2000
   22.8322   16.4016    6.5312 C   0  0  0  1  0  0  0  0  0  0  0  0
   22.1469   17.6042    6.5311 C   0  0  0  1  0  0  0  0  0  0  0  0
   20.8086   17.6562    6.5314 N   0  0  0  1  0  0  0  0  0  0  0  0
   20.1641   16.4820    6.5309 C   0  0  0  1  0  0  0  0  0  0  0  0
   20.8495   15.2795    6.5309 C   0  0  0  1  0  0  0  0  0  0  0  0
   23.0800   19.2588    6.5307 Br  0  0  0  1  0  0  0  0  0  0  0  0
   22.1877   15.2275    6.5306 N   0  0  0  1  0  0  0  0  0  0  0  0
   23.8722   16.4099    6.5316 H   0  0  0  1  0  0  0  0  0  0  0  0
   19.1242   16.4737    6.5304 H   0  0  0  1  0  0  0  0  0  0  0  0
   20.3096   14.3906    6.5312 H   0  0  0  1  0  0  0  0  0  0  0  0
  1  2  2  0  0  0  0
  1  7  1  0  0  0  0
  1  8  1  0  0  0  0
  2  3  1  0  0  0  0
  2  6  1  0  0  0  0
  3  4  2  0  0  0  0
  4  5  1  0  0  0  0
  4  9  1  0  0  0  0
  5  7  2  0  0  0  0
  5 10  1  0  0  0  0
M  END
> <BCLConfClusterSize>
1

> <ConfClashScore>
0 

> <ConfOneFourInteractionScore>
0 

> <ConfScore>
0 

> <ConfScorePBest>
1 

> <SampleByParts>
0 1 2 3 4 6 

$$$$



 10 10  0  0  0  0  0  0  0  0999 V2000
   20.7956   17.5852    6.5323 C   0  0  0  1  0  0  0  0  0  0  0  0
   22.1751   17.6315    6.5317 C   0  0  0  1  0  0  0  0  0  0  0  0
   22.8363   16.4178    6.5334 C   0  0  0  1  0  0  0  0  0  0  0  0
   22.1866   15.2418    6.5299 N   0  0  0  1  0  0  0  0  0  0  0  0
   20.8561   15.3215    6.5293 C   0  0  0  1  0  0  0  0  0  0  0  0
   23.1128   19.2724    6.5288 Br  0  0  0  1  0  0  0  0  0  0  0  0
   20.1131   16.4307    6.5297 N   0  0  0  1  0  0  0  0  0  0  0  0
   20.2652   18.4797    6.5348 H   0  0  0  1  0  0  0  0  0  0  0  0
   23.8763   16.4147    6.5375 H   0  0  0  1  0  0  0  0  0  0  0  0
   20.3392   14.4191    6.5285 H   0  0  0  1  0  0  0  0  0  0  0  0
  1  2  2  0  0  0  0
  1  7  1  0  0  0  0
  1  8  1  0  0  0  0
  2  3  1  0  0  0  0
  2  6  1  0  0  0  0
  3  4  2  0  0  0  0
  3  9  1  0  0  0  0
  4  5  1  0  0  0  0
  5  7  2  0  0  0  0
  5 10  1  0  0  0  0
M  END
> <BCLConfClusterSize>
1

> <ConfClashScore>
0 

> <ConfOneFourInteractionScore>
0 

> <ConfScore>
0 

> <ConfScorePBest>
1 

> <SampleByParts>
0 1 2 3 4 6 

$$$$



 10 10  0  0  0  0  0  0  0  0999 V2000
   22.8231   16.4261    6.5389 C   0  0  0  1  0  0  0  0  0  0  0  0
   22.1666   17.6618    6.5330 C   0  0  0  1  0  0  0  0  0  0  0  0
   20.7962   17.6493    6.5322 C   0  0  0  1  0  0  0  0  0  0  0  0
   20.1614   16.4014    6.5306 C   0  0  0  1  0  0  0  0  0  0  0  0
   20.8292   15.2508    6.5211 N   0  0  0  1  0  0  0  0  0  0  0  0
   23.1330   19.2860    6.5265 Br  0  0  0  1  0  0  0  0  0  0  0  0
   22.1801   15.2620    6.5243 N   0  0  0  1  0  0  0  0  0  0  0  0
   23.8629   16.4176    6.5553 H   0  0  0  1  0  0  0  0  0  0  0  0
   20.2485   18.5334    6.5327 H   0  0  0  1  0  0  0  0  0  0  0  0
   19.1218   16.3726    6.5371 H   0  0  0  1  0  0  0  0  0  0  0  0
  1  2  2  0  0  0  0
  1  7  1  0  0  0  0
  1  8  1  0  0  0  0
  2  3  1  0  0  0  0
  2  6  1  0  0  0  0
  3  4  2  0  0  0  0
  3  9  1  0  0  0  0
  4  5  1  0  0  0  0
  4 10  1  0  0  0  0
  5  7  2  0  0  0  0
M  END
> <BCLConfClusterSize>
1

> <ConfClashScore>
0 

> <ConfOneFourInteractionScore>
0 

> <ConfScore>
0 

> <ConfScorePBest>
1 

> <SampleByParts>
0 1 2 3 4 6 

$$$$



 11 11  0  0  0  0  0  0  0  0999 V2000
   20.8336   17.6826    6.5338 N   0  0  0  1  0  0  0  0  0  0  0  0
   22.1726   17.6180    6.5317 C   0  0  0  1  0  0  0  0  0  0  0  0
   22.8736   16.4247    6.5319 C   0  0  0  1  0  0  0  0  0  0  0  0
   22.1657   15.2387    6.5298 C   0  0  0  1  0  0  0  0  0  0  0  0
   20.7841   15.2901    6.5274 C   0  0  0  1  0  0  0  0  0  0  0  0
   23.0328   19.2856    6.5287 Br  0  0  0  1  0  0  0  0  0  0  0  0
   20.1649   16.5254    6.5310 C   0  0  0  1  0  0  0  0  0  0  0  0
   23.9136   16.4211    6.5335 H   0  0  0  1  0  0  0  0  0  0  0  0
   22.6623   14.3249    6.5302 H   0  0  0  1  0  0  0  0  0  0  0  0
   20.2214   14.4154    6.5228 H   0  0  0  1  0  0  0  0  0  0  0  0
   19.1253   16.5563    6.5316 H   0  0  0  1  0  0  0  0  0  0  0  0
  1  2  2  0  0  0  0
  1  7  1  0  0  0  0
  2  3  1  0  0  0  0
  2  6  1  0  0  0  0
  3  4  2  0  0  0  0
  3  8  1  0  0  0  0
  4  5  1  0  0  0  0
  4  9  1  0  0  0  0
  5  7  2  0  0  0  0
  5 10  1  0  0  0  0
  7 11  1  0  0  0  0
M  END
> <BCLConfClusterSize>
1

> <ConfClashScore>
0 

> <ConfOneFourInteractionScore>
0 

> <ConfScore>
0 

> <ConfScorePBest>
1 

> <SampleByParts>
0 1 2 3 4 6 

$$$$



 11 11  0  0  0  0  0  0  0  0999 V2000
   22.8511   16.4583    6.5283 C   0  0  0  1  0  0  0  0  0  0  0  0
   22.1730   17.6633    6.5304 C   0  0  0  1  0  0  0  0  0  0  0  0
   20.7919   17.6472    6.5314 C   0  0  0  1  0  0  0  0  0  0  0  0
   20.1406   16.4260    6.5307 C   0  0  0  1  0  0  0  0  0  0  0  0
   20.7852   15.2505    6.5331 N   0  0  0  1  0  0  0  0  0  0  0  0
   23.1175   19.3004    6.5317 Br  0  0  0  1  0  0  0  0  0  0  0  0
   22.1212   15.2849    6.5313 C   0  0  0  1  0  0  0  0  0  0  0  0
   23.8908   16.4356    6.5245 H   0  0  0  1  0  0  0  0  0  0  0  0
   20.2516   18.5358    6.5327 H   0  0  0  1  0  0  0  0  0  0  0  0
   19.1007   16.4200    6.5282 H   0  0  0  1  0  0  0  0  0  0  0  0
   22.6381   14.3824    6.5322 H   0  0  0  1  0  0  0  0  0  0  0  0
  1  2  2  0  0  0  0
  1  7  1  0  0  0  0
  1  8  1  0  0  0  0
  2  3  1  0  0  0  0
  2  6  1  0  0  0  0
  3  4  2  0  0  0  0
  3  9  1  0  0  0  0
  4  5  1  0  0  0  0
  4 10  1  0  0  0  0
  5  7  2  0  0  0  0
  7 11  1  0  0  0  0
M  END
> <BCLConfClusterSize>
1

> <ConfClashScore>
0 

> <ConfOneFourInteractionScore>
0 

> <ConfScore>
0 

> <ConfScorePBest>
1 

> <SampleByParts>
0 1 2 3 4 6 

$$$$
