XXF
  PyMOL2.3          3D                             0

 32 32  0  0  0  0  0  0  0  0999 V2000
    6.7788   28.8989   48.4429 C   0  0  0  1  0  0  0  0  0  0  0  0
    5.6325   28.4725   48.3095 O   0  0  0  1  0  0  0  0  0  0  0  0
    7.0506   30.3847   48.5093 C   0  0  0  1  0  0  0  0  0  0  0  0
    8.0625   30.5494   48.8159 H   0  0  0  1  0  0  0  0  0  0  0  0
    6.3862   30.8374   49.2154 H   0  0  0  1  0  0  0  0  0  0  0  0
    6.8955   30.8189   47.5438 H   0  0  0  1  0  0  0  0  0  0  0  0
    7.8191   28.0654   48.5333 N   0  0  0  1  0  0  0  0  0  0  0  0
    7.6841   26.6297   48.3377 C   0  0  0  1  0  0  0  0  0  0  0  0
    7.4005   25.9759   49.6840 C   0  0  0  1  0  0  0  0  0  0  0  0
    8.2322   25.9907   50.5876 O   0  0  0  1  0  0  0  0  0  0  0  0
    8.9048   26.0534   47.6323 C   0  0  0  1  0  0  0  0  0  0  0  0
    8.7812   25.9159   46.1274 C   0  0  0  1  0  0  0  0  0  0  0  0
    9.1726   24.7643   45.4711 C   0  0  0  1  0  0  0  0  0  0  0  0
    8.3469   27.0138   45.4012 C   0  0  0  1  0  0  0  0  0  0  0  0
    9.1259   24.7053   44.0869 C   0  0  0  1  0  0  0  0  0  0  0  0
    8.3002   26.9552   44.0211 C   0  0  0  1  0  0  0  0  0  0  0  0
    8.6928   25.8001   43.3630 C   0  0  0  1  0  0  0  0  0  0  0  0
    8.7037   28.4337   48.7385 H   0  0  0  1  0  0  0  0  0  0  0  0
    6.8362   26.4535   47.7093 H   0  0  0  1  0  0  0  0  0  0  0  0
    9.0923   25.0813   48.0382 H   0  0  0  1  0  0  0  0  0  0  0  0
    9.7375   26.6930   47.8380 H   0  0  0  1  0  0  0  0  0  0  0  0
    9.5023   23.9420   46.0157 H   0  0  0  1  0  0  0  0  0  0  0  0
    8.0561   27.8818   45.8949 H   0  0  0  1  0  0  0  0  0  0  0  0
    9.4167   23.8373   43.5933 H   0  0  0  1  0  0  0  0  0  0  0  0
    7.9705   27.7776   43.4765 H   0  0  0  1  0  0  0  0  0  0  0  0
    8.6615   25.7572   42.3243 H   0  0  0  1  0  0  0  0  0  0  0  0
    6.2031   25.3961   49.8069 N   0  0  0  1  0  0  0  0  0  0  0  0
    5.7287   24.8523   51.0707 C   0  0  0  1  0  0  0  0  0  0  0  0
    5.6240   25.3350   49.0186 H   0  0  0  1  0  0  0  0  0  0  0  0
    6.5657   24.5737   51.6763 H   0  0  0  1  0  0  0  0  0  0  0  0
    5.1223   23.9909   50.8828 H   0  0  0  1  0  0  0  0  0  0  0  0
    5.1494   25.5923   51.5821 H   0  0  0  1  0  0  0  0  0  0  0  0
  1  2  2  0  0  0  0
  1  3  1  0  0  0  0
  1  7  1  0  0  0  0
  3  4  1  0  0  0  0
  3  5  1  0  0  0  0
  3  6  1  0  0  0  0
  7  8  1  0  0  0  0
  7 18  1  0  0  0  0
  8  9  1  0  0  0  0
  8 11  1  0  0  0  0
  8 19  1  0  0  0  0
  9 10  2  0  0  0  0
  9 27  1  0  0  0  0
 11 12  1  0  0  0  0
 11 20  1  0  0  0  0
 11 21  1  0  0  0  0
 12 13  1  0  0  0  0
 12 14  2  0  0  0  0
 13 15  2  0  0  0  0
 13 22  1  0  0  0  0
 14 16  1  0  0  0  0
 14 23  1  0  0  0  0
 15 17  1  0  0  0  0
 15 24  1  0  0  0  0
 16 17  2  0  0  0  0
 16 25  1  0  0  0  0
 17 26  1  0  0  0  0
 27 28  1  0  0  0  0
 27 29  1  0  0  0  0
 28 30  1  0  0  0  0
 28 31  1  0  0  0  0
 28 32  1  0  0  0  0
M  END
> <ConfClashScore>
0 

> <ConfOneFourInteractionScore>
-0.970447 

> <ConfScore>
0 

> <ConfScorePBest>
0.00532852 

> <ConfTolerance>
0.125 

> <ConformerIndex>
74 

> <PropertyFieldDistance>
0.871502 

$$$$
